<?xml version="1.0"?>
<!-- generated on 2018-11-05 20:29:27.995627 by $Id: route2trips.py 20433 2016-04-13 08:00:14Z behrisch $ -->
<trips>
    <vType id="passenger" vClass="passenger"/>
    <trip id="veh0" depart="0.00" departLane="best" from="46525058#0" to="-388696206" type="passenger"/>
    <trip id="veh1" depart="1.38" departLane="best" from="324118558" to="226041031#6" type="passenger"/>
    <trip id="veh2" depart="2.76" departLane="best" from="499172074#9" to="495253326#4" type="passenger"/>
    <trip id="veh3" depart="4.14" departLane="best" from="5673063#3" to="139919714#0" type="passenger"/>
    <trip id="veh4" depart="5.52" departLane="best" from="44165030" to="-420894357#0" type="passenger"/>
    <trip id="veh5" depart="6.90" departLane="best" from="226041027#1" to="46432183#1" type="passenger"/>
    <trip id="veh6" depart="8.28" departLane="best" from="-420509471#1" to="226041013#0" type="passenger"/>
    <trip id="veh7" depart="9.66" departLane="best" from="46538375#0" to="46481744#0" type="passenger"/>
    <trip id="veh9" depart="12.42" departLane="best" from="5669669#4" to="-195743208#1" type="passenger"/>
    <trip id="veh10" depart="13.80" departLane="best" from="5669669#0" to="496990647#2" type="passenger"/>
    <trip id="veh11" depart="15.18" departLane="best" from="420496091#2" to="195743345" type="passenger"/>
    <trip id="veh12" depart="16.56" departLane="best" from="618990022#0" to="420496529" type="passenger"/>
    <trip id="veh13" depart="17.94" departLane="best" from="127693383#5" to="167922076" type="passenger"/>
    <trip id="veh14" depart="19.32" departLane="best" from="5671192#1" to="46521994" type="passenger"/>
    <trip id="veh15" depart="20.70" departLane="best" from="5669669#0" to="500717384" type="passenger"/>
    <trip id="veh16" depart="22.08" departLane="best" from="464515259#3" to="618990022#4" type="passenger"/>
    <trip id="veh17" depart="23.46" departLane="best" from="420904618" to="46481747#2" type="passenger"/>
    <trip id="veh18" depart="24.84" departLane="best" from="5670719#0" to="46522006" type="passenger"/>
    <trip id="veh19" depart="26.22" departLane="best" from="5671654#1" to="46490537#2" type="passenger"/>
    <trip id="veh20" depart="27.60" departLane="best" from="496986970#0" to="-46520921#2" type="passenger"/>
    <trip id="veh21" depart="28.99" departLane="best" from="226041031#0" to="36806901" type="passenger"/>
    <trip id="veh22" depart="30.37" departLane="best" from="-583020573#1" to="22941844" type="passenger"/>
    <trip id="veh23" depart="31.75" departLane="best" from="167922073#1" to="36806659#1" type="passenger"/>
    <trip id="veh24" depart="33.13" departLane="best" from="46522160#0" to="420903240" type="passenger"/>
    <trip id="veh25" depart="34.51" departLane="best" from="420902585#2" to="226041027#0" type="passenger"/>
    <trip id="veh26" depart="35.89" departLane="best" from="320888283" to="569345525" type="passenger"/>
    <trip id="veh27" depart="37.27" departLane="best" from="46538371#4" to="46522000#1" type="passenger"/>
    <trip id="veh28" depart="38.65" departLane="best" from="198595461#0" to="500182596" type="passenger"/>
    <trip id="veh29" depart="40.03" departLane="best" from="196116976#0" to="420907906#2" type="passenger"/>
    <trip id="veh30" depart="41.41" departLane="best" from="68674961#5" to="46538371#3" type="passenger"/>
    <trip id="veh31" depart="42.79" departLane="best" from="46481747#1" to="496986803#10" type="passenger"/>
    <trip id="veh32" depart="44.17" departLane="best" from="5671117#1" to="541350711#0" type="passenger"/>
    <trip id="veh33" depart="45.55" departLane="best" from="226041031#1" to="-420894361#1" type="passenger"/>
    <trip id="veh34" depart="46.93" departLane="best" from="388696207#1" to="36271338#3" type="passenger"/>
    <trip id="veh35" depart="48.31" departLane="best" from="226041022#1" to="569345538#0" type="passenger"/>
    <trip id="veh37" depart="51.07" departLane="best" from="46538375#15" to="438384693#0" type="passenger"/>
    <trip id="veh38" depart="52.45" departLane="best" from="569345515#1" to="458180191#2" type="passenger"/>
    <trip id="veh39" depart="53.83" departLane="best" from="320888283" to="31984130" type="passenger"/>
    <trip id="veh40" depart="55.21" departLane="best" from="46482538#1" to="350726028#4" type="passenger"/>
    <trip id="veh41" depart="56.59" departLane="best" from="46492009" to="5673063#5" type="passenger"/>
    <trip id="veh42" depart="57.97" departLane="best" from="421852029" to="226041031#0" type="passenger"/>
    <trip id="veh43" depart="59.35" departLane="best" from="68674962#36" to="46435602#1" type="passenger"/>
    <trip id="veh44" depart="60.73" departLane="best" from="127693383#2" to="-496986969#1" type="passenger"/>
    <trip id="veh45" depart="62.11" departLane="best" from="169267539#2" to="46522008#6" type="passenger"/>
    <trip id="veh46" depart="63.49" departLane="best" from="542257982#0" to="458166897#11" type="passenger"/>
    <trip id="veh49" depart="67.63" departLane="best" from="-36271338#3" to="499172074#13" type="passenger"/>
    <trip id="veh50" depart="69.01" departLane="best" from="495253326#3" to="464516471#6" type="passenger"/>
    <trip id="veh51" depart="70.39" departLane="best" from="320888283" to="46538371#4" type="passenger"/>
    <trip id="veh53" depart="73.15" departLane="best" from="458166897#4" to="569345547#1" type="passenger"/>
    <trip id="veh54" depart="74.53" departLane="best" from="5672151#3" to="350726028#4" type="passenger"/>
    <trip id="veh55" depart="75.91" departLane="best" from="460589632" to="226041002#1" type="passenger"/>
    <trip id="veh56" depart="77.29" departLane="best" from="569345508#0" to="5672118#6" type="passenger"/>
    <trip id="veh57" depart="78.67" departLane="best" from="36806907" to="46538371#2" type="passenger"/>
    <trip id="veh58" depart="80.05" departLane="best" from="46520921#2" to="195743342#4" type="passenger"/>
    <trip id="veh59" depart="81.43" departLane="best" from="511699185#2" to="464516471#9" type="passenger"/>
    <trip id="veh60" depart="82.81" departLane="best" from="542255948#3" to="464515259#4" type="passenger"/>
    <trip id="veh61" depart="84.20" departLane="best" from="-139919706" to="420356170#1" type="passenger"/>
    <trip id="veh62" depart="85.58" departLane="best" from="-384826723#2" to="569345502#2" type="passenger"/>
    <trip id="veh63" depart="86.96" departLane="best" from="5672290#1" to="5670803" type="passenger"/>
    <trip id="veh64" depart="88.34" departLane="best" from="384178816#1" to="-542259076#2" type="passenger"/>
    <trip id="veh65" depart="89.72" departLane="best" from="5672290#0" to="569345540#3" type="passenger"/>
    <trip id="veh66" depart="91.10" departLane="best" from="127693103#0" to="460585329#1" type="passenger"/>
    <trip id="veh67" depart="92.48" departLane="best" from="-5671654#0" to="511699184#0" type="passenger"/>
    <trip id="veh68" depart="93.86" departLane="best" from="525729010#0" to="194920158#6" type="passenger"/>
    <trip id="veh69" depart="95.24" departLane="best" from="458180188#1" to="46481744#2" type="passenger"/>
    <trip id="veh70" depart="96.62" departLane="best" from="320888283" to="5672118#6" type="passenger"/>
    <trip id="veh71" depart="98.00" departLane="best" from="44165031#1" to="226041027#3" type="passenger"/>
    <trip id="veh72" depart="99.38" departLane="best" from="464516471#0" to="500717384" type="passenger"/>
    <trip id="veh73" depart="100.76" departLane="best" from="226041008#0" to="388696206" type="passenger"/>
    <trip id="veh74" depart="102.14" departLane="best" from="68674962#33" to="46538375#17" type="passenger"/>
    <trip id="veh75" depart="103.52" departLane="best" from="456409016" to="46443656#11" type="passenger"/>
    <trip id="veh76" depart="104.90" departLane="best" from="420496091#0" to="46518731#12" type="passenger"/>
    <trip id="veh77" depart="106.28" departLane="best" from="-5671654#1" to="46522160#5" type="passenger"/>
    <trip id="veh78" depart="107.66" departLane="best" from="226041031#1" to="5673461#0" type="passenger"/>
    <trip id="veh79" depart="109.04" departLane="best" from="5671629#1" to="-587038082" type="passenger"/>
    <trip id="veh80" depart="110.42" departLane="best" from="273019805#2" to="483236728#5" type="passenger"/>
    <trip id="veh81" depart="111.80" departLane="best" from="569345547#0" to="46482602#8" type="passenger"/>
    <trip id="veh82" depart="113.18" departLane="best" from="458180187#1" to="542256188#3" type="passenger"/>
    <trip id="veh83" depart="114.56" departLane="best" from="5669669#0" to="226041007#1" type="passenger"/>
    <trip id="veh84" depart="115.94" departLane="best" from="167922070" to="458166897#6" type="passenger"/>
    <trip id="veh85" depart="117.32" departLane="best" from="44165033#0" to="458180198#1" type="passenger"/>
    <trip id="veh86" depart="118.70" departLane="best" from="497258109" to="492489884" type="passenger"/>
    <trip id="veh87" depart="120.08" departLane="best" from="68668540" to="169267538#0" type="passenger"/>
    <trip id="veh88" depart="121.46" departLane="best" from="421852040#0" to="420802027#1" type="passenger"/>
    <trip id="veh89" depart="122.84" departLane="best" from="5671654#1" to="320480540#3" type="passenger"/>
    <trip id="veh90" depart="124.22" departLane="best" from="226041004#2" to="458180185" type="passenger"/>
    <trip id="veh91" depart="125.60" departLane="best" from="44165030" to="36806659#2" type="passenger"/>
    <trip id="veh92" depart="126.98" departLane="best" from="273895450#0" to="569345499#1" type="passenger"/>
    <trip id="veh94" depart="129.74" departLane="best" from="46469727#0" to="-497258109" type="passenger"/>
    <trip id="veh95" depart="131.12" departLane="best" from="68674968#0" to="5670874#1" type="passenger"/>
    <trip id="veh96" depart="132.50" departLane="best" from="619280607#0" to="569345499#1" type="passenger"/>
    <trip id="veh97" depart="133.88" departLane="best" from="5671192#3" to="198924552#0" type="passenger"/>
    <trip id="veh98" depart="135.26" departLane="best" from="458180197" to="226041028#0" type="passenger"/>
    <trip id="veh99" depart="136.64" departLane="best" from="421852030" to="-5670139" type="passenger"/>
    <trip id="veh100" depart="138.02" departLane="best" from="420904618" to="630828557" type="passenger"/>
    <trip id="veh101" depart="139.41" departLane="best" from="320888283" to="542256188#3" type="passenger"/>
    <trip id="veh102" depart="140.79" departLane="best" from="458166897#5" to="458166897#12" type="passenger"/>
    <trip id="veh103" depart="142.17" departLane="best" from="618990022#0" to="68674968#0" type="passenger"/>
    <trip id="veh104" depart="143.55" departLane="best" from="46481744#1" to="499172074#1" type="passenger"/>
    <trip id="veh105" depart="144.93" departLane="best" from="195743342#0" to="381565180#0" type="passenger"/>
    <trip id="veh106" depart="146.31" departLane="best" from="619280607#0" to="46492009" type="passenger"/>
    <trip id="veh107" depart="147.69" departLane="best" from="464516471#4" to="506680905" type="passenger"/>
    <trip id="veh109" depart="150.45" departLane="best" from="46139029" to="5671276#6" type="passenger"/>
    <trip id="veh110" depart="151.83" departLane="best" from="195743342#0" to="588157336" type="passenger"/>
    <trip id="veh111" depart="153.21" departLane="best" from="-587038082" to="226041005#2" type="passenger"/>
    <trip id="veh113" depart="155.97" departLane="best" from="22916381" to="169383514#1" type="passenger"/>
    <trip id="veh114" depart="157.35" departLane="best" from="5673063#14" to="308322447#4" type="passenger"/>
    <trip id="veh115" depart="158.73" departLane="best" from="46518731#0" to="46522006" type="passenger"/>
    <trip id="veh117" depart="161.49" departLane="best" from="46435657" to="569345518#0" type="passenger"/>
    <trip id="veh118" depart="162.87" departLane="best" from="226041008#4" to="497258108#1" type="passenger"/>
    <trip id="veh119" depart="164.25" departLane="best" from="273019810#0" to="438384693#0" type="passenger"/>
    <trip id="veh120" depart="165.63" departLane="best" from="492489888" to="382740985#6" type="passenger"/>
    <trip id="veh121" depart="167.01" departLane="best" from="396444295#0" to="506680906#1" type="passenger"/>
    <trip id="veh122" depart="168.39" departLane="best" from="-5671654#1" to="458180191#1" type="passenger"/>
    <trip id="veh123" depart="169.77" departLane="best" from="68674962#37" to="68674968#0" type="passenger"/>
    <trip id="veh124" depart="171.15" departLane="best" from="-5672752#0" to="226041027#5" type="passenger"/>
    <trip id="veh125" depart="172.53" departLane="best" from="320888283" to="569345515#4" type="passenger"/>
    <trip id="veh126" depart="173.91" departLane="best" from="5672730" to="5672151#2" type="passenger"/>
    <trip id="veh127" depart="175.29" departLane="best" from="420902585#1" to="196116976#11" type="passenger"/>
    <trip id="veh128" depart="176.67" departLane="best" from="5670867#0" to="497165753#3" type="passenger"/>
    <trip id="veh129" depart="178.05" departLane="best" from="46521995" to="68325075-AddedOnRampEdge" type="passenger"/>
    <trip id="veh130" depart="179.43" departLane="best" from="46538375#12" to="-273019810#0" type="passenger"/>
    <trip id="veh131" depart="180.81" departLane="best" from="5670106#6" to="382740985#3" type="passenger"/>
    <trip id="veh132" depart="182.19" departLane="best" from="46583189#2" to="569345536" type="passenger"/>
    <trip id="veh133" depart="183.57" departLane="best" from="194926851#1" to="169267543" type="passenger"/>
    <trip id="veh134" depart="184.95" departLane="best" from="169267538#1" to="46482536" type="passenger"/>
    <trip id="veh135" depart="186.33" departLane="best" from="324118557#0" to="46521994" type="passenger"/>
    <trip id="veh136" depart="187.71" departLane="best" from="497165753#5" to="226041022#4" type="passenger"/>
    <trip id="veh137" depart="189.09" departLane="best" from="46522160#0" to="350726028#4" type="passenger"/>
    <trip id="veh138" depart="190.47" departLane="best" from="5671160#1" to="167922073#0" type="passenger"/>
    <trip id="veh139" depart="191.85" departLane="best" from="44165033#0" to="36806659#0" type="passenger"/>
    <trip id="veh140" depart="193.23" departLane="best" from="-167922076" to="528748997#2" type="passenger"/>
    <trip id="veh141" depart="194.62" departLane="best" from="46522160#2" to="350726028#4" type="passenger"/>
    <trip id="veh142" depart="196.00" departLane="best" from="452322756#0" to="-273019810#0" type="passenger"/>
    <trip id="veh143" depart="197.38" departLane="best" from="-5672752#1" to="5672290#1" type="passenger"/>
    <trip id="veh144" depart="198.76" departLane="best" from="5673515#0" to="46481744#1" type="passenger"/>
    <trip id="veh145" depart="200.14" departLane="best" from="5670867#1" to="46492010#2" type="passenger"/>
    <trip id="veh146" depart="201.52" departLane="best" from="195743182#2" to="194920158#5" type="passenger"/>
    <trip id="veh147" depart="202.90" departLane="best" from="384649120#1" to="5673063#6" type="passenger"/>
    <trip id="veh149" depart="205.66" departLane="best" from="5673323#0" to="226041027#1" type="passenger"/>
    <trip id="veh150" depart="207.04" departLane="best" from="273895450#0" to="169267539#4" type="passenger"/>
    <trip id="veh151" depart="208.42" departLane="best" from="542255948#5" to="5672464" type="passenger"/>
    <trip id="veh152" depart="209.80" departLane="best" from="422298615#3" to="46522006" type="passenger"/>
    <trip id="veh153" depart="211.18" departLane="best" from="195743342#0" to="569345508#0" type="passenger"/>
    <trip id="veh154" depart="212.56" departLane="best" from="5672036#1" to="618990022#7" type="passenger"/>
    <trip id="veh155" depart="213.94" departLane="best" from="5669669#5" to="5672155#1" type="passenger"/>
    <trip id="veh156" depart="215.32" departLane="best" from="-388696206" to="505317789#0" type="passenger"/>
    <trip id="veh157" depart="216.70" departLane="best" from="420356171#2" to="569345515#0" type="passenger"/>
    <trip id="veh159" depart="219.46" departLane="best" from="5669669#5" to="36271338#3" type="passenger"/>
    <trip id="veh160" depart="220.84" departLane="best" from="542257008#1" to="169267541#0" type="passenger"/>
    <trip id="veh161" depart="222.22" departLane="best" from="5672149#0" to="5671629#1" type="passenger"/>
    <trip id="veh162" depart="223.60" departLane="best" from="226041028#0" to="5670114#0" type="passenger"/>
    <trip id="veh163" depart="224.98" departLane="best" from="458177131#1" to="384649120#4" type="passenger"/>
    <trip id="veh164" depart="226.36" departLane="best" from="542258337#0" to="226041032#0" type="passenger"/>
    <trip id="veh165" depart="227.74" departLane="best" from="-384826723#6" to="226041008#1" type="passenger"/>
    <trip id="veh166" depart="229.12" departLane="best" from="420356169#1" to="5672036#1" type="passenger"/>
    <trip id="veh167" depart="230.50" departLane="best" from="618990022#9" to="36806659#2" type="passenger"/>
    <trip id="veh168" depart="231.88" departLane="best" from="465256868" to="438385431#3" type="passenger"/>
    <trip id="veh169" depart="233.26" departLane="best" from="68668540" to="464516471#5" type="passenger"/>
    <trip id="veh170" depart="234.64" departLane="best" from="575746067" to="169267543" type="passenger"/>
    <trip id="veh171" depart="236.02" departLane="best" from="619280607#0" to="226041002#1" type="passenger"/>
    <trip id="veh172" depart="237.40" departLane="best" from="618990022#4" to="350726030#1" type="passenger"/>
    <trip id="veh173" depart="238.78" departLane="best" from="169267539#0" to="458177131#0" type="passenger"/>
    <trip id="veh174" depart="240.16" departLane="best" from="497258108#1" to="388696207#1" type="passenger"/>
    <trip id="veh175" depart="241.54" departLane="best" from="46520834" to="46435602#4" type="passenger"/>
    <trip id="veh176" depart="242.92" departLane="best" from="420905130#0" to="464847785" type="passenger"/>
    <trip id="veh177" depart="244.30" departLane="best" from="308322447#1" to="497165756#3" type="passenger"/>
    <trip id="veh178" depart="245.68" departLane="best" from="-167922072#1" to="569345499#1" type="passenger"/>
    <trip id="veh179" depart="247.06" departLane="best" from="464515891" to="499172074#11" type="passenger"/>
    <trip id="veh180" depart="248.44" departLane="best" from="500717410" to="492489884" type="passenger"/>
    <trip id="veh181" depart="249.82" departLane="best" from="481856150" to="420496090#0" type="passenger"/>
    <trip id="veh182" depart="251.21" departLane="best" from="388696206" to="5671192#3" type="passenger"/>
    <trip id="veh183" depart="252.59" departLane="best" from="497165756#1" to="382740985#6" type="passenger"/>
    <trip id="veh184" depart="253.97" departLane="best" from="384649120#2" to="44165031#0" type="passenger"/>
    <trip id="veh186" depart="256.73" departLane="best" from="194920158#3" to="458166897#1" type="passenger"/>
    <trip id="veh187" depart="258.11" departLane="best" from="583020573#0" to="495253326#5" type="passenger"/>
    <trip id="veh188" depart="259.49" departLane="best" from="5673497" to="46522002#2" type="passenger"/>
    <trip id="veh189" depart="260.87" departLane="best" from="36807165#0" to="46481744#2" type="passenger"/>
    <trip id="veh190" depart="262.25" departLane="best" from="-139919706" to="36806680#1" type="passenger"/>
    <trip id="veh191" depart="263.63" departLane="best" from="452322756#3" to="46492009-AddedOffRampEdge" type="passenger"/>
    <trip id="veh192" depart="265.01" departLane="best" from="46538375#14" to="458180196" type="passenger"/>
    <trip id="veh193" depart="266.39" departLane="best" from="458166897#0" to="226041028#0" type="passenger"/>
    <trip id="veh194" depart="267.77" departLane="best" from="542258337#1" to="198924778#1" type="passenger"/>
    <trip id="veh195" depart="269.15" departLane="best" from="125480075" to="46435657" type="passenger"/>
    <trip id="veh196" depart="270.53" departLane="best" from="46522008#8" to="420496529" type="passenger"/>
    <trip id="veh197" depart="271.91" departLane="best" from="5670114#1" to="506680906#1" type="passenger"/>
    <trip id="veh198" depart="273.29" departLane="best" from="492489888" to="226041031#6" type="passenger"/>
    <trip id="veh199" depart="274.67" departLane="best" from="226041008#0" to="-384826723#5" type="passenger"/>
    <trip id="veh200" depart="276.05" departLane="best" from="273019814#1" to="460069727" type="passenger"/>
    <trip id="veh201" depart="277.43" departLane="best" from="5671192#4" to="118714453#0" type="passenger"/>
    <trip id="veh203" depart="280.19" departLane="best" from="226041006#3" to="496990647#0" type="passenger"/>
    <trip id="veh205" depart="282.95" departLane="best" from="46538375#16" to="-195743208#0" type="passenger"/>
    <trip id="veh206" depart="284.33" departLane="best" from="505777317#2" to="528748997#1" type="passenger"/>
    <trip id="veh207" depart="285.71" departLane="best" from="169267538#0" to="458166897#15" type="passenger"/>
    <trip id="veh208" depart="287.09" departLane="best" from="198595461#5" to="583020573#0" type="passenger"/>
    <trip id="veh209" depart="288.47" departLane="best" from="46435602#3" to="-497165757" type="passenger"/>
    <trip id="veh210" depart="289.85" departLane="best" from="273895449" to="5671192#3" type="passenger"/>
    <trip id="veh211" depart="291.23" departLane="best" from="458166897#7" to="542259076#2" type="passenger"/>
    <trip id="veh212" depart="292.61" departLane="best" from="46518731#10" to="569345543" type="passenger"/>
    <trip id="veh213" depart="293.99" departLane="best" from="497165756#0" to="46334594#2" type="passenger"/>
    <trip id="veh214" depart="295.37" departLane="best" from="5670719#3" to="46481744#2" type="passenger"/>
    <trip id="veh215" depart="296.75" departLane="best" from="5673276#0" to="505778913" type="passenger"/>
    <trip id="veh216" depart="298.13" departLane="best" from="458180188#0" to="350726028#2" type="passenger"/>
    <trip id="veh217" depart="299.51" departLane="best" from="273019814#5" to="46538335#1" type="passenger"/>
    <trip id="veh218" depart="300.89" departLane="best" from="525729010#0" to="46443656#12" type="passenger"/>
    <trip id="veh219" depart="302.27" departLane="best" from="46522008#0" to="36801336#1" type="passenger"/>
    <trip id="veh220" depart="303.65" departLane="best" from="-5672752#1" to="36806679#1" type="passenger"/>
    <trip id="veh221" depart="305.03" departLane="best" from="324118557#0" to="420281338" type="passenger"/>
    <trip id="veh222" depart="306.42" departLane="best" from="464516471#1" to="194926851#6" type="passenger"/>
    <trip id="veh223" depart="307.80" departLane="best" from="226041031#4" to="496989355#0" type="passenger"/>
    <trip id="veh224" depart="309.18" departLane="best" from="496986970#1" to="-5670874#0" type="passenger"/>
    <trip id="veh225" depart="310.56" departLane="best" from="422298615#4" to="464543615#2" type="passenger"/>
    <trip id="veh226" depart="311.94" departLane="best" from="438385431#5" to="226041025#1" type="passenger"/>
    <trip id="veh227" depart="313.32" departLane="best" from="441405436" to="5673323#2" type="passenger"/>
    <trip id="veh228" depart="314.70" departLane="best" from="46492009" to="496989355#3" type="passenger"/>
    <trip id="veh229" depart="316.08" departLane="best" from="5671440#1" to="525729009" type="passenger"/>
    <trip id="veh230" depart="317.46" departLane="best" from="420904621#1" to="-195743208#0" type="passenger"/>
    <trip id="veh231" depart="318.84" departLane="best" from="420892271#0" to="511699176" type="passenger"/>
    <trip id="veh232" depart="320.22" departLane="best" from="5671276#6" to="569345547#1" type="passenger"/>
    <trip id="veh233" depart="321.60" departLane="best" from="441405435" to="506680905" type="passenger"/>
    <trip id="veh234" depart="322.98" departLane="best" from="464516471#9" to="46521994" type="passenger"/>
    <trip id="veh235" depart="324.36" departLane="best" from="226041027#3" to="226041031#0" type="passenger"/>
    <trip id="veh236" depart="325.74" departLane="best" from="455122830#2" to="-420894339" type="passenger"/>
    <trip id="veh237" depart="327.12" departLane="best" from="420496091#0" to="496982023#0" type="passenger"/>
    <trip id="veh238" depart="328.50" departLane="best" from="421852041#0" to="198595461#4" type="passenger"/>
    <trip id="veh239" depart="329.88" departLane="best" from="458180184#1" to="194920158#5" type="passenger"/>
    <trip id="veh240" depart="331.26" departLane="best" from="46522002#0" to="-420356170#0" type="passenger"/>
    <trip id="veh241" depart="332.64" departLane="best" from="-420509471#1" to="46538371#6" type="passenger"/>
    <trip id="veh242" depart="334.02" departLane="best" from="194926851#3" to="458180193#1" type="passenger"/>
    <trip id="veh243" depart="335.40" departLane="best" from="-496982023#1" to="420907906#1" type="passenger"/>
    <trip id="veh244" depart="336.78" departLane="best" from="226041022#2" to="420356171#2" type="passenger"/>
    <trip id="veh245" depart="338.16" departLane="best" from="511699185#1" to="420907906#1" type="passenger"/>
    <trip id="veh246" depart="339.54" departLane="best" from="506680905" to="5670803" type="passenger"/>
    <trip id="veh247" depart="340.92" departLane="best" from="308322447#0" to="127693383#2" type="passenger"/>
    <trip id="veh248" depart="342.30" departLane="best" from="-384826723#2" to="464516471#9" type="passenger"/>
    <trip id="veh249" depart="343.68" departLane="best" from="68674968#0" to="420901669" type="passenger"/>
    <trip id="veh250" depart="345.06" departLane="best" from="46538375#0" to="542255948#5" type="passenger"/>
    <trip id="veh251" depart="346.44" departLane="best" from="46538375#0" to="511699178" type="passenger"/>
    <trip id="veh252" depart="347.82" departLane="best" from="60325668" to="226041021#0" type="passenger"/>
    <trip id="veh253" depart="349.20" departLane="best" from="-384826723#6" to="195743342#4" type="passenger"/>
    <trip id="veh254" depart="350.58" departLane="best" from="194920158#2" to="483360105" type="passenger"/>
    <trip id="veh255" depart="351.96" departLane="best" from="46482539#3" to="226041030#1" type="passenger"/>
    <trip id="veh256" depart="353.34" departLane="best" from="496986803#8" to="525729010#0" type="passenger"/>
    <trip id="veh257" depart="354.72" departLane="best" from="196116976#6" to="46521998" type="passenger"/>
    <trip id="veh258" depart="356.10" departLane="best" from="505777313#1" to="169267543" type="passenger"/>
    <trip id="veh259" depart="357.48" departLane="best" from="5670124#0" to="589494596" type="passenger"/>
    <trip id="veh260" depart="358.86" departLane="best" from="169267539#0" to="-420356169#0" type="passenger"/>
    <trip id="veh261" depart="360.24" departLane="best" from="384826723#1" to="495253326#5" type="passenger"/>
    <trip id="veh262" depart="361.63" departLane="best" from="618990022#0" to="438384693#1" type="passenger"/>
    <trip id="veh263" depart="363.01" departLane="best" from="497165753#1" to="118714453#3" type="passenger"/>
    <trip id="veh264" depart="364.39" departLane="best" from="496983399" to="46522008#6" type="passenger"/>
    <trip id="veh265" depart="365.77" departLane="best" from="167922073#2" to="528748997#4" type="passenger"/>
    <trip id="veh266" depart="367.15" departLane="best" from="5671276#0" to="46520921#1" type="passenger"/>
    <trip id="veh267" depart="368.53" departLane="best" from="194920158#0" to="630828556#0" type="passenger"/>
    <trip id="veh268" depart="369.91" departLane="best" from="542256188#2" to="420894361#0" type="passenger"/>
    <trip id="veh269" depart="371.29" departLane="best" from="452322756#1" to="420904657#0" type="passenger"/>
    <trip id="veh270" depart="372.67" departLane="best" from="46240204#0" to="420890028" type="passenger"/>
    <trip id="veh271" depart="374.05" departLane="best" from="5671192#4" to="5670253#0" type="passenger"/>
    <trip id="veh272" depart="375.43" departLane="best" from="167922077" to="588157336" type="passenger"/>
    <trip id="veh273" depart="376.81" departLane="best" from="46522160#0" to="5670719#6" type="passenger"/>
    <trip id="veh274" depart="378.19" departLane="best" from="496989355#0" to="458177131#1" type="passenger"/>
    <trip id="veh275" depart="379.57" departLane="best" from="499172074#2" to="600848479#0" type="passenger"/>
    <trip id="veh276" depart="380.95" departLane="best" from="324118557#0" to="5669669#5" type="passenger"/>
    <trip id="veh277" depart="382.33" departLane="best" from="464515891" to="460585328#9" type="passenger"/>
    <trip id="veh278" depart="383.71" departLane="best" from="455122830#2" to="500717392" type="passenger"/>
    <trip id="veh279" depart="385.09" departLane="best" from="324118554#0" to="5671276#3" type="passenger"/>
    <trip id="veh280" depart="386.47" departLane="best" from="5670719#3" to="139919714#0" type="passenger"/>
    <trip id="veh281" depart="387.85" departLane="best" from="458180181#1" to="46522001#1" type="passenger"/>
    <trip id="veh282" depart="389.23" departLane="best" from="420904618" to="-420894333" type="passenger"/>
    <trip id="veh283" depart="390.61" departLane="best" from="5671276#11" to="226041005#1" type="passenger"/>
    <trip id="veh284" depart="391.99" departLane="best" from="226041022#3" to="542258337#1" type="passenger"/>
    <trip id="veh285" depart="393.37" departLane="best" from="420496091#2" to="5672151#3" type="passenger"/>
    <trip id="veh286" depart="394.75" departLane="best" from="496986969#0" to="36806658" type="passenger"/>