<?xml version="1.0" encoding="UTF-8"?>

<!-- generated on Mon Nov  5 20:29:27 2018 by SUMO duarouter Version 0.26.0
<?xml version="1.0" encoding="UTF-8"?>

<configuration xmlns:xsi="http://www.w3.org/2001/XMLSchema-instance" xsi:noNamespaceSchemaLocation="http://sumo.dlr.de/xsd/duarouterConfiguration.xsd">

    <input>
        <net-file value="osm.net.xml"/>
        <trip-files value="osm.passenger.trips.xml"/>
    </input>

    <output>
        <output-file value="osm.passenger.rou.xml"/>
    </output>

    <processing>
        <ignore-errors value="true"/>
    </processing>

    <time>
        <begin value="0"/>
        <end value="3600.0"/>
    </time>

    <report>
        <no-warnings value="true"/>
        <no-step-log value="true"/>
    </report>

</configuration>
-->

<routes xmlns:xsi="http://www.w3.org/2001/XMLSchema-instance" xsi:noNamespaceSchemaLocation="http://sumo.dlr.de/xsd/routes_file.xsd">
    <vType id="passenger" vClass="passenger"/>
    <vehicle id="veh0" type="passenger" depart="0.00" departLane="best">
        <route edges="46525058#0 46525058#1 46525058#2 -420904621#2 -420904621#1 -420904621#0 -169267538#0 5673276#0 5673276#1 420904838 505777313#0 505777313#1 505777313#2 505777310 169267539#0 169267539#1 169267539#2 46435602#1 46435602#2 46435602#3 46435602#4 -420894361#1 -420894361#0 -420894339 -420894357#1 -420894357#0 -420894333 194920158#1 194920158#2 194920158#3 194920158#5 194920158#6 194920158#7 194920158#8 194920158#9 194920158#10 194920158#11 194920158#12 194920158#13 194920158#14 420908138#0 420908138#2 420908138#3 5670867#0 5670867#1 5673497 441405435 420906753 496992868 420281339 458180196 420906752 421850829 388696206 -388696206"/>
    </vehicle>
    <vehicle id="veh1" type="passenger" depart="1.38" departLane="best">
        <route edges="324118558 196116976#5 46538371#3 46538371#4 46538371#5 420892271#0 5671276#0 226041031#4 226041031#6"/>
    </vehicle>
    <vehicle id="veh2" type="passenger" depart="2.76" departLane="best">
        <route edges="499172074#9 499172074#11 420890029 618990022#4-AddedOnRampEdge 618990022#4 196116976#1 196116976#3 196116976#5 46538371#3 46538371#4 46538371#5 420892271#0 5671276#0 5671276#3 5671276#6 46443656#9 46443656#10 420894357#0 420894357#1 420894331 420894361#0 420894361#1 420894361#2 420894361#4 46525058#0 46525058#1 46525058#2 46139027#0 46139027#1 46482539#1 46482539#2 46482539#3 495253326#3 495253326#4"/>
    </vehicle>
    <vehicle id="veh3" type="passenger" depart="4.14" departLane="best">
        <route edges="5673063#3 5673063#4 169267542#1 169267542#2 5671192#4 46522007 458177131#0 458177131#1 458177131#2 458177131#3 511699176 458177130 438397345 464515891 511699184#0 511699184#1 511699185#1 511699185#2 438385431#0 438385431#1 438385431#2 438385431#3 438385431#4 438385431#5 420904660#0 420904660#1 420904660#2 46522005 500717399 464543614 542256453 511755381 420901918 420901919 420901920#0 420901920#2 542255948#3 542255948#4 139919714#0"/>
    </vehicle>
    <vehicle id="veh4" type="passenger" depart="5.52" departLane="best">
        <route edges="44165030 386972970 44165033#0 44165033#1 575746067 497165756#0 497165756#1 497165756#2 458180186#3 458180184#0 458180184#1 458180184#2 5670114#0 5670114#1 542258337#0 542258337#1 542258337#2 542258337#3 542258337#4 46443656#0 46443656#2 46443656#3 46443656#4 46443656#5 46443656#6 46443656#7 46443656#8 46443656#9 46443656#10 420894357#0 -420894357#0"/>
    </vehicle>
    <vehicle id="veh5" type="passenger" depart="6.90" departLane="best">
        <route edges="226041027#1 226041027#2 194926851#1 46522008#5 46522008#6 420907908#1 420907908#2 194926855 525729009 525729010#0 525729010#1 226041021#0 226041021#1 46432183#1"/>
    </vehicle>
    <vehicle id="veh6" type="passenger" depart="8.28" departLane="best">
        <route edges="-420509471#1 420509471#0 194926854#0 194926854#1 46481747#0 46481747#1 46481747#2 384649120#1 384649120#2 384649120#3 384649120#4 440122868 448686048 127693103#0 127693103#1 464516471#0 464516471#1 46522000#0 46522000#1 5670225 458180181#0 458180181#1 420902878#1 497165756#0 497165756#1 497165756#2 497165756#3 497165756#4 497165756#5 497165756#6 497165756#7 497165756#8 497165756#9 528748997#4 569345502#1 226041013#0"/>
    </vehicle>
    <vehicle id="veh7" type="passenger" depart="9.66" departLane="best">
        <route edges="46538375#0 46538375#3 5671276#0 5671276#3 5671276#6 46443656#9 46443656#10 420894357#0 420894357#1 420894331 420894361#0 420894361#1 420894361#2 420894361#4 46525058#0 46525058#1 46525058#2 46139027#0 46139027#1 420903240 420903239 36801165#0 36801165#1 36801165#3 460589632 46481744#0"/>
    </vehicle>
    <vehicle id="veh9" type="passenger" depart="12.42" departLane="best">
        <route edges="5669669#4 5669669#5 5669669#6 506680905 396444295#2 396444295#3 396444295#4 589494595#0 589494595#1 589494595#2 496986803#1 496986803#2 496986803#4 420902585#3 420902585#4 420902584#1 542256188#0 542256188#1 542256188#2 542256188#3 542256188#4 542256188#5 46481747#0 464543615#1 464543615#2 -195743208#1"/>
    </vehicle>
    <vehicle id="veh10" type="passenger" depart="13.80" departLane="best">
        <route edges="5669669#0 127693383#3 127693383#4 127693383#5 127693383#6 600848485 194926854#0 194926854#1 46481747#0 46481747#1 46481747#2 384649120#1 384649120#2 384649120#3 384649120#4 440122868 448686048 127693103#0 127693103#1 464516471#0 464516471#1 46522000#0 46522000#1 5670225 458180181#0 458180181#1 420902878#1 420902883#1 420902883#2 196117039 496990647#0 496990647#1 496990647#2"/>
    </vehicle>
    <vehicle id="veh11" type="passenger" depart="15.18" departLane="best">
        <route edges="420496091#2 420496091#3 420496091#4 46334594#0 46334594#2 458180198#0 458180198#1 198924778#0 198924778#1 422298615#1 422298615#3 422298615#4 195743336#0 195743336#1 195743336#2 458180197 458180191#0 458180191#1 458180191#2 458180190 384178816#0 384178816#1 511699175 458180183 5670124#0 5670124#1 46522008#0 46522008#1 397795464#0 397795464#1 569345544 167922070 195743209 195743345"/>
    </vehicle>
    <vehicle id="veh12" type="passenger" depart="16.56" departLane="best">
        <route edges="618990022#0 618990022#3 618990022#4-AddedOnRampEdge 618990022#4 196116976#1 196116976#3 324118554#0 324118554#1 226041032#0 226041032#3 226041032#4 46521993#0 46521993#1 458180197 458180191#0 458180191#1 458180191#2 458180190 384178816#0 384178816#1 511699175 458180183 438397345 464515891 511699184#0 511699184#1 511699185#1 511699185#2 438385431#0 438385431#1 438385431#2 438385431#3 438385431#4 438385431#5 420496529"/>
    </vehicle>
    <vehicle id="veh13" type="passenger" depart="17.94" departLane="best">
        <route edges="127693383#5 127693383#6 600848485 194926854#0 194926854#1 194926854#2 194926854#3 194926854#4 125479721 542257430 195743345 -525729008#1 -167922076 -167922072#2 167922072#2 167922076"/>
    </vehicle>
    <vehicle id="veh14" type="passenger" depart="19.32" departLane="best">
        <route edges="5671192#1 5671192#2 5671192#3 5671192#4 458166897#8 458166897#9 458166897#10 458166897#11 458166897#12 458166897#13 458166897#14 458166897#15 458166897#16 46521994"/>
    </vehicle>
    <vehicle id="veh15" type="passenger" depart="20.70" departLane="best">
        <route edges="5669669#0 127693383#3 127693383#4 127693383#5 127693383#6 600848485 194926854#0 194926854#1 46481747#0 46481747#1 500717384"/>
    </vehicle>
    <vehicle id="veh16" type="passenger" depart="22.08" departLane="best">
        <route edges="464515259#3 464515259#4 460069727 5672730 207542284-AddedOnRampEdge 207542284 36806908 46492007 36806677 46492010#1 46492010#2 542256188#0 542256188#1 542256188#2 542256188#3 542256188#4 542256188#5 46481747#0 46481747#1 46481747#2 384649120#1 384649120#2 384649120#3 384649120#4 440122868 448686048 127693103#0 127693103#1 464516471#0 464516471#1 464516471#2 464516471#3 464516471#4 464516471#5 464516471#6 464516471#7 464516471#8 464516471#9 569345537#0 569345537#2 420905130#0 420905130#2 46538371#0 46538371#2 46538371#3 420890028 420890024 420890025 420890029 618990022#4-AddedOnRampEdge 618990022#4"/>
    </vehicle>
    <vehicle id="veh17" type="passenger" depart="23.46" departLane="best">
        <route edges="420904618 167922077 525729009 525729010#0 525729010#1 525729010#2 525729010#3 420901918 420901919 542256188#3 542256188#4 542256188#5 46481747#0 46481747#1 46481747#2"/>
    </vehicle>
    <vehicle id="veh18" type="passenger" depart="24.84" departLane="best">
        <route edges="5670719#0 396444295#1 396444295#2 396444295#3 396444295#4 589494595#0 589494595#1 589494595#2 496986803#1 496986803#2 496986803#4 420902585#3 420902585#4 420902584#1 542256188#0 542256188#1 542256188#2 542256188#3 542256188#4 542256188#5 46481747#0 46481747#1 46481747#2 46522006"/>
    </vehicle>
    <vehicle id="veh19" type="passenger" depart="26.22" departLane="best">
        <route edges="5671654#1 420903239 36801165#0 36801165#1 36801165#3 460589632 46481744#0 5672142 5672142-AddedOffRampEdge 420902585#1 420902585#2-AddedOnRampEdge 420902585#2 420902585#3 420902585#4 420902584#1 36806892 68325075-AddedOnRampEdge 68325075 46490537#2"/>
    </vehicle>
    <vehicle id="veh20" type="passenger" depart="27.60" departLane="best">
        <route edges="496986970#0 496986970#1 496989355#0 496989355#1 496989355#3 226041032#0 226041032#3 226041032#4 46521993#0 46521993#1 458180197 458180191#0 458180191#1 458180191#2 5673497 441405436 569345515#1 569345515#2 569345515#3 5673063#12 -46520921#2"/>
    </vehicle>
    <vehicle id="veh21" type="passenger" depart="28.99" departLane="best">
        <route edges="226041031#0 226041031#1 226041031#2 226041031#3 5671276#3 5671276#6 5671276#9 5671276#11 5671276#12 420907908#0 420907908#1 420907908#2 194926855 525729009 525729010#0 525729010#1 525729010#2 525729010#3 420901918 485746107#1 36806661#2 36806908 46492007 465256869 465256869-AddedOffRampEdge 36806901"/>
    </vehicle>
    <vehicle id="veh22" type="passenger" depart="30.37" departLane="best">
        <route edges="-583020573#1 -583020573#0 -36806903 -139919706 542255948#5 496986803#2 496986803#4 496986803#5 496986803#6 496986803#7 496986803#8 496986803#9 496986803#10 496986803#11 460585328#0 -68325079 -420904620 -420904621#2 -420904621#1 -420904621#0 -169267538#0 5673276#0 5673276#1 420904838 505777313#0 505777313#1 505777313#2 505777310 169267539#0 169267539#1 169267539#2 169267539#3 169267539#4 22941844"/>
    </vehicle>
    <vehicle id="veh23" type="passenger" depart="31.75" departLane="best">
        <route edges="167922073#1 167922073#2 167922073#3 464516471#6 464516471#7 542258337#0 542258337#1 542258337#2 542258337#3 542258337#4 46443656#0 46443656#2 46443656#3 46443656#4 46443656#5 46443656#6 46443656#7 46443656#8 5671276#9 5671276#11 5671276#12 420907908#0 420907908#1 420907908#2 194926855 525729009 525729010#0 525729010#1 525729010#2 525729010#3 420901918 420901919 420901920#0 420901920#2 420901921 420901922 194926856 350726030#0 350726030#1 350726028#0 350726028#1 36806659#0 36806659#1"/>
    </vehicle>
    <vehicle id="veh24" type="passenger" depart="33.13" departLane="best">
        <route edges="46522160#0 420496091#2 420496091#3 420496091#4 46334594#0 46334594#2 458180198#0 458180198#1 198924778#0 198924778#1 422298615#1 422298615#3 422298615#4 195743336#0 195743336#1 195743336#2 458180197 458180191#0 458180191#1 458180191#2 458180190 5670114#0 5670114#1 542258337#0 542258337#1 542258337#2 542258337#3 542258337#4 46443656#0 46443656#2 46443656#3 46443656#4 46443656#5 46443656#6 46443656#7 46443656#8 46443656#9 46443656#10 420894357#0 420894357#1 420894331 420894361#0 420894361#1 420894361#2 420894361#4 46525058#0 46525058#1 46525058#2 46139027#0 46139027#1 420903240"/>
    </vehicle>
    <vehicle id="veh25" type="passenger" depart="34.51" departLane="best">
        <route edges="420902585#2 496986803#5 496986803#6 496986803#7 496986803#8 496986803#9 496986803#10 496986803#11 460585328#0 460585328#1 460585328#2 46482609 226041027#0"/>
    </vehicle>
    <vehicle id="veh26" type="passenger" depart="35.89" departLane="best">
        <route edges="320888283 46492017 36807165#1 223694351 46492638 273895449 -420904618 460585328#1 460585328#2 460585328#3 460585328#4 46482602#1 46482602#2 46482602#3 46482602#4 46482602#5 46482602#6 46482602#7 46482602#8 46482602#9 46482602#10 420494981#0 420494981#1 46522000#0 46522000#1 5670225 458180181#0 458180181#1 420902878#1 497165756#0 497165756#1 497165756#2 497165756#3 497165756#4 569345518#0 569345518#1 569345518#2 569345525"/>
    </vehicle>
    <vehicle id="veh27" type="passenger" depart="37.27" departLane="best">
        <route edges="46538371#4 46538371#5 420892271#0 5671276#0 5671276#3 5671276#6 5671276#9 5671276#11 5671276#12 46482602#2 46482602#3 46482602#4 46482602#5 46482602#6 46482602#7 46482602#8 46482602#9 46482602#10 420494981#0 420494981#1 46522000#0 46522000#1"/>
    </vehicle>
    <vehicle id="veh28" type="passenger" depart="38.65" departLane="best">
        <route edges="198595461#0 420496091#4 46334594#0 46334594#2 458180198#0 458180198#1 198924778#0 198924778#1 422298615#1 422298615#3 422298615#4 195743336#0 195743336#1 195743336#2 458180197 458180191#0 458180191#1 458180191#2 458180190 384178816#0 384178816#1 511699175 458180183 438397345 464515891 511699184#0 511699184#1 511699185#1 511699185#2 438385431#0 438385431#1 438385431#2 438385431#3 438385431#4 438385431#5 420904660#0 420904660#1 420904660#2 46522005 500717399 464543614 542256453 511755381 420901918 485746107#1 36806661#2 36806908 46492007 465256869 465256869-AddedOffRampEdge 465256868 68325075-AddedOnRampEdge 68325075 500182596"/>
    </vehicle>
    <vehicle id="veh29" type="passenger" depart="40.03" departLane="best">
        <route edges="196116976#0 196116976#1 196116976#3 196116976#5 196116976#6 196116976#7 226041030#0 226041030#1 226041030#2 420907906#2"/>
    </vehicle>
    <vehicle id="veh30" type="passenger" depart="41.41" departLane="best">
        <route edges="68674961#5 44165030 386972970 44165033#0 44165033#1 575746067 497165756#0 497165756#1 497165756#2 458180186#3 458180184#0 458180184#1 458180184#2 5670114#0 5670114#1 464516471#8 464516471#9 569345537#0 569345537#2 420905130#0 420905130#2 46538371#0 46538371#2 46538371#3"/>
    </vehicle>
    <vehicle id="veh31" type="passenger" depart="42.79" departLane="best">
        <route edges="46481747#1 46481747#2 384649120#1 46522005 500717399 464543614 542256453 511755381 452319915 36806679#1 496986803#7 496986803#8 496986803#9 496986803#10"/>
    </vehicle>
    <vehicle id="veh32" type="passenger" depart="44.17" departLane="best">
        <route edges="5671117#1 5671117#2 -420894361#5 -420894361#3 -420894361#1 -420894361#0 -420894339 -420894357#1 -420894357#0 -420894333 194920158#1 194920158#2 194920158#3 194920158#5 194920158#6 194920158#7 194920158#8 194920158#9 194920158#10 194920158#11 194920158#12 194920158#13 194920158#14 420908138#0 420908138#2 420908138#3 464516471#9 569345537#0 569345537#2 569345537#4 569345537#5 541350711#0"/>
    </vehicle>
    <vehicle id="veh33" type="passenger" depart="45.55" departLane="best">
        <route edges="226041031#1 226041031#2 226041031#3 5671276#3 5671276#6 46443656#9 46443656#10 420894357#0 420894357#1 420894331 420894361#0 420894361#1 -420894361#1"/>
    </vehicle>
    <vehicle id="veh34" type="passenger" depart="46.93" departLane="best">
        <route edges="388696207#1 198924552#0 198924552#2 569345474 588157336 569345502#0 569345502#1 569345502#2 458180195 458180193#0 458180193#1 458180193#2 458180189 458180187#0 458180187#1 458180187#2 196117039 496990647#0 496990647#1 496990647#2 630828556#0 5670106#5 5670106#6 36271338#0 36271338#3"/>
    </vehicle>
    <vehicle id="veh35" type="passenger" depart="48.31" departLane="best">
        <route edges="226041022#1 226041022#2 226041022#3 226041022#4 5672155#0 5672155#1 630828557 511699182 511699181 438384693#0 438384693#1 420906755 458180182 420356172 496993762 458180184#0 458180184#1 458180184#2 5670114#0 5670114#1 464516471#8 464516471#9 569345538#0"/>
    </vehicle>
    <vehicle id="veh37" type="passenger" depart="51.07" departLane="best">
        <route edges="46538375#15 569345537#2 569345537#4 46521993#0 46521993#1 458180197 458180191#0 458180191#1 458180191#2 458180190 384178816#0 384178816#1 511699175 458180183 438397345 464515891 511699184#0 511699184#1 511699185#1 511699185#2 5670106#0 5670106#1 511699182 511699181 438384693#0"/>
    </vehicle>
    <vehicle id="veh38" type="passenger" depart="52.45" departLane="best">
        <route edges="569345515#1 458180186#3 458180185 441405435 569345531 569345535 458180191#2"/>
    </vehicle>
    <vehicle id="veh39" type="passenger" depart="53.83" departLane="best">
        <route edges="320888283 36806907 46492007 465256869 465256869-AddedOffRampEdge 465256868 68325075-AddedOnRampEdge 68325075 500182596 5670275 420901925 36806658 350726028#2 5669669#6 506680905 396444295#2 46226332#0 31984130"/>
    </vehicle>
    <vehicle id="veh40" type="passenger" depart="55.21" departLane="best">
        <route edges="46482538#1 46482538#2 46482537#1 46482537#2 273895450#0 273895450#1 525729010#1 525729010#2 525729010#3 420901918 420901919 420901920#0 420901920#2 420901921 420901922 194926856 350726030#0 350726030#1 350726028#0 350726028#1 350726028#2 350726028#3 350726028#4"/>
    </vehicle>
    <vehicle id="veh41" type="passenger" depart="56.59" departLane="best">
        <route edges="46492009 46492009-AddedOffRampEdge 36801355#0 46482541#0 46482541#1 46482541#2 -420903239 5671425 46139029 46482538#1 46482538#2 496986803#11 460585328#0 460585328#1 460585328#2 460585328#3 460585328#4 46482602#1 46482602#2 46482602#3 46482602#4 46482602#5 46482602#6 46482602#7 46482602#8 46482602#9 46482602#10 420494981#0 420494981#1 46522000#0 46522000#1 5670225 458180181#0 458180181#1 420902878#1 420902883#1 420902883#2 420496090#0 420496090#1 458166897#9 458166897#10 226041006#3 226041006#4 169267542#0 5673063#5"/>
    </vehicle>
    <vehicle id="veh42" type="passenger" depart="57.97" departLane="best">
        <route edges="421852029 464847784 421852041#0 421852041#1 194920158#0 194920158#1 194920158#2 194920158#3 194920158#5 194920158#6 194920158#7 194920158#8 194920158#9 420907906#1 226041031#0"/>
    </vehicle>
    <vehicle id="veh43" type="passenger" depart="59.35" departLane="best">
        <route edges="68674962#36 68674962#37 68674962#38 497165753#0 497165753#1 497165753#2 497165753#3 497165753#4 497165753#5 569345515#0 569345515#1 458180186#3 458180184#0 458180184#1 458180184#2 5670114#0 5670114#1 542258337#0 542258337#1 542258337#2 542258337#3 542258337#4 46443656#0 46443656#2 46443656#3 46443656#4 46443656#5 46443656#6 46443656#7 46443656#8 46443656#9 46443656#10 420894357#0 420894357#1 420894331 420894361#0 420894361#1 420894361#2 46435596#2 46435596#4 46435596#5 169267539#0 169267539#1 169267539#2 46435602#1"/>
    </vehicle>
    <vehicle id="veh44" type="passenger" depart="60.73" departLane="best">
        <route edges="127693383#2 127693383#3 127693383#4 127693383#5 127693383#6 600848485 194926854#0 194926854#1 46481747#0 46481747#1 46481747#2 384649120#1 384649120#2 384649120#3 384649120#4 440122868 448686048 127693103#0 127693103#1 464516471#0 464516471#1 464516471#2 464516471#3 464516471#4 464516471#5 464516471#6 464516471#7 464516471#8 464516471#9 569345537#0 569345537#2 569345537#4 569345537#5 541350711#0 541350711#1 496986969#0 496986969#1 -496986969#1"/>
    </vehicle>
    <vehicle id="veh45" type="passenger" depart="62.11" departLane="best">
        <route edges="169267539#2 46435602#1 46435602#2 46435602#3 46435602#4 46435602#5 46435602#6 46482602#0 46482602#1 420907908#0 420907908#1 226041027#0 226041027#1 226041027#2 194926851#1 46522008#5 46522008#6"/>
    </vehicle>
    <vehicle id="veh46" type="passenger" depart="63.49" departLane="best">
        <route edges="542257982#0 569345547#1 542257008#1 542257009#0 384649120#3 384649120#4 440122868 448686048 127693103#0 127693103#1 464516471#0 464516471#1 46522000#0 46522000#1 5670225 458180181#0 458180181#1 420902878#1 420902883#1 420902883#2 420496090#0 420496090#1 458166897#9 458166897#10 458166897#11"/>
    </vehicle>
    <vehicle id="veh49" type="passenger" depart="67.63" departLane="best">
        <route edges="-36271338#3 -36271338#2 458166897#4 458166897#5 458166897#6 458166897#7 458166897#8 458166897#9 458166897#10 458166897#11 46522002#0 46522002#1 46522002#2 458180186#0 458180186#1 458180186#3 458180184#0 458180184#1 458180184#2 5670114#0 5670114#1 464516471#8 464516471#9 569345537#0 569345537#2 420905130#0 420905130#2 46538371#0 46538371#2 46538371#3 420890028 420890024 420890025 499172074#12 499172074#13"/>
    </vehicle>
    <vehicle id="veh50" type="passenger" depart="69.01" departLane="best">
        <route edges="495253326#3 495253326#4 495253326#5 5673276#0 5673276#1 420904838 505777313#0 505777313#1 505777313#2 505777310 169267539#0 169267539#1 169267539#2 46435602#1 46435602#2 46435602#3 46435602#4 46435602#5 46435602#6 46482602#0 46482602#1 46482602#2 46482602#3 46482602#4 46482602#5 46482602#6 46482602#7 46482602#8 46482602#9 46482602#10 420494981#0 420494981#1 464516471#2 464516471#3 464516471#4 464516471#5 464516471#6"/>
    </vehicle>
    <vehicle id="veh51" type="passenger" depart="70.39" departLane="best">
        <route edges="320888283 46492017 36807165#1 223694351 46492638 273895449 -420904618 460585328#1 460585328#2 460585328#3 46522008#8 46482600 -420894361#3 -420894361#1 -420894361#0 -420894339 -420894357#1 -420894357#0 -420894333 194920158#1 194920158#2 194920158#3 194920158#5 194920158#6 194920158#7 194920158#8 194920158#9 420907906#1 420907906#2 420907906#3 46538371#4"/>
    </vehicle>
    <vehicle id="veh53" type="passenger" depart="73.15" departLane="best">
        <route edges="458166897#4 458166897#5 458166897#6 458166897#7 46522007 458177131#0 458177131#1 458177131#2 458177131#3 511699176 458177130 438397345 464515891 511699184#0 511699184#1 511699185#1 511699185#2 438385431#0 438385431#1 438385431#2 438385431#3 36806906#0 36806906#1 542257982#0 569345547#1"/>
    </vehicle>
    <vehicle id="veh54" type="passenger" depart="74.53" departLane="best">
        <route edges="5672151#3 46518731#5 46518731#6 46518731#7 5671192#0 5671192#1 5671192#2 5671192#3 5671192#4 46522007 458177131#0 458177131#1 458177131#2 458177131#3 511699176 458177130 438397345 464515891 511699184#0 511699184#1 511699185#1 511699185#2 438385431#0 438385431#1 438385431#2 438385431#3 438385431#4 438385431#5 420904660#0 420904660#1 420904660#2 46522005 500717399 464543614 542256453 511755381 420901918 420901919 420901920#0 420901920#2 420901921 420901922 194926856 350726030#0 350726030#1 350726028#0 350726028#1 350726028#2 350726028#3 350726028#4"/>
    </vehicle>
    <vehicle id="veh55" type="passenger" depart="75.91" departLane="best">
        <route edges="460589632 46481744#0 5672142 5672142-AddedOffRampEdge 420902585#1 420902585#2-AddedOnRampEdge 420902585#2 420902585#3 420902585#4 420902584#1 542256188#0 542256188#1 542256188#2 542256188#3 542256188#4 542256188#5 46481747#0 46481747#1 46481747#2 384649120#1 384649120#2 542257009#1 542257009#2 542257009#4 542257009#5 483236728#0 195743182#2 195743182#3 226041004#0 226041004#1 226041004#2 226041002#0 226041002#1"/>
    </vehicle>
    <vehicle id="veh56" type="passenger" depart="77.29" departLane="best">
        <route edges="569345508#0 569345515#0 511924978#1 458180188#0 458180188#1 458166897#13 458166897#14 5672118#5 5672118#5-AddedOffRampEdge 5672118#6"/>
    </vehicle>
    <vehicle id="veh57" type="passenger" depart="78.67" departLane="best">
        <route edges="36806907 46492007 36806677 46492010#1 46492010#2 542256188#0 542256188#1 542256188#2 542256188#3 542256188#4 542256188#5 46481747#0 46481747#1 46481747#2 384649120#1 384649120#2 384649120#3 384649120#4 440122868 448686048 127693103#0 127693103#1 464516471#0 464516471#1 464516471#2 464516471#3 464516471#4 464516471#5 464516471#6 464516471#7 464516471#8 464516471#9 569345537#0 569345537#2 420905130#0 420905130#2 46538371#0 46538371#2"/>
    </vehicle>
    <vehicle id="veh58" type="passenger" depart="80.05" departLane="best">
        <route edges="46520921#2 5673063#13 420356172 496993762 458180185 441405435 420906753 496992868 420281339 458180196 420906752 421850829 388696207#0 388696207#1 198924587 458180199#0 458180199#1 458180199#2 46522160#5 195743342#3 195743342#4"/>
    </vehicle>
    <vehicle id="veh59" type="passenger" depart="81.43" departLane="best">
        <route edges="511699185#2 5670106#0 5670106#1 511699182 511699181 438384693#0 438384693#1 420906755 458180182 420356172 496993762 458180184#0 458180184#1 458180184#2 5670114#0 5670114#1 464516471#8 464516471#9"/>
    </vehicle>
    <vehicle id="veh60" type="passenger" depart="82.81" departLane="best">
        <route edges="542255948#3 505537786 139919714#1 542256188#1 542256188#2 420901920#0 420901920#2 420901921 420901922 194926856 350726030#0 350726030#1 350726028#0 350726028#1 36806659#0 36806659#1 127693383#4 464515259#3 464515259#4"/>
    </vehicle>
    <vehicle id="veh61" type="passenger" depart="84.20" departLane="best">
        <route edges="-139919706 139919714#0 139919714#1 542256188#1 542256188#2 542256188#3 542256188#4 542256188#5 46481747#0 46481747#1 46481747#2 384649120#1 384649120#2 542257009#1 542257009#2 542257009#4 542257009#5 483236728#0 195743182#2 195743182#3 630828557 511699182 -5672991 -496995905 420356170#1"/>
    </vehicle>
    <vehicle id="veh62" type="passenger" depart="85.58" departLane="best">
        <route edges="-384826723#2 -384826723#0 -420356169#0 458166897#5 458166897#6 458166897#7 458166897#8 458166897#9 458166897#10 458166897#11 458166897#12 458166897#13 458166897#14 458166897#15 458166897#16 458166897#17 455122830#2 569345502#2"/>
    </vehicle>
    <vehicle id="veh63" type="passenger" depart="86.96" departLane="best">
        <route edges="5672290#1 5670873#1 5670874#0 5670874#1 422298615#1 422298615#3 422298615#4 195743336#0 195743336#1 195743336#2 458180197 458180191#0 458180191#1 458180191#2 458180190 384178816#0 384178816#1 511699175 458180183 438397345 464515891 511699184#0 511699184#1 511699185#1 511699185#2 438385431#0 438385431#1 438385431#2 438385431#3 438385431#4 438385431#5 420904660#0 420904660#1 420904660#2 46522005 500717399 464543615#0 464543615#1 464543615#2 5670803"/>
    </vehicle>
    <vehicle id="veh64" type="passenger" depart="88.34" departLane="best">
        <route edges="384178816#1 511699175 458180183 5670124#0 5670124#1 46522008#0 46522008#1 46522008#2 46522008#3 46522008#4 46522008#5 46522008#6 420907908#1 420907908#2 194926855 -542259076#2"/>
    </vehicle>
    <vehicle id="veh65" type="passenger" depart="89.72" departLane="best">
        <route edges="5672290#0 5672290#1 5670873#1 5670874#0 5670874#1 422298615#1 422298615#3 422298615#4 195743336#0 195743336#1 195743336#2 458180197 458180191#0 458180191#1 458180191#2 458180190 5670114#0 5670114#1 542258337#0 542258337#1 542258337#2 542258337#3 542258337#4 569345540#3"/>
    </vehicle>
    <vehicle id="veh66" type="passenger" depart="91.10" departLane="best">
        <route edges="127693103#0 127693103#1 464516471#0 46522008#0 46522008#1 46522008#2 46522008#3 46522008#4 46522008#5 46522008#6 420907908#1 420907908#2 194926855 525729009 525729010#0 525729010#1 525729010#2 525729010#3 420901918 485746107#1 36806661#2 36806908 46492007 465256869 465256869-AddedOffRampEdge 36806901 273019805#2 460585329#0 460585329#1"/>
    </vehicle>
    <vehicle id="veh67" type="passenger" depart="92.48" departLane="best">
        <route edges="-5671654#0 495253326#2 495253326#3 495253326#4 495253326#5 5673276#0 5673276#1 420904838 505777313#0 505777313#1 505777313#2 505777310 169267539#0 169267539#1 169267539#2 46435602#1 46435602#2 46435602#3 46435602#4 46435602#5 46435602#6 46482602#0 46482602#1 46482602#2 46482602#3 46482602#4 46482602#5 46482602#6 46482602#7 46482602#8 46482602#9 46482602#10 420494981#0 420494981#1 46522000#0 46522000#1 458180183 438397345 464515891 511699184#0"/>
    </vehicle>
    <vehicle id="veh68" type="passenger" depart="93.86" departLane="best">
        <route edges="525729010#0 525729010#1 226041021#0 226041021#1 496986803#9 496986803#10 496986803#11 460585328#0 460585328#1 460585328#2 460585328#3 46522008#8 46482600 -420894361#3 -420894361#1 -420894361#0 -420894339 -420894357#1 -420894357#0 -420894333 194920158#1 194920158#2 194920158#3 194920158#5 194920158#6"/>
    </vehicle>
    <vehicle id="veh69" type="passenger" depart="95.24" departLane="best">
        <route edges="458180188#1 458166897#13 226041008#2 458180193#2 458180189 458180186#0 458180186#1 458180186#3 458180184#0 458180184#1 458180184#2 5670114#0 5670114#1 542258337#0 542258337#1 542258337#2 542258337#3 542258337#4 46443656#0 46443656#2 46443656#3 46443656#4 46443656#5 46443656#6 46443656#7 46443656#8 46443656#9 46443656#10 420894357#0 420894357#1 420894331 420894361#0 420894361#1 420894361#2 420894361#4 46525058#0 46525058#1 46525058#2 46139027#0 46139027#1 420903240 420903239 36801165#0 36801165#1 36801165#3 460589632 46481744#0 46481744#1 46481744#2"/>
    </vehicle>
    <vehicle id="veh70" type="passenger" depart="96.62" departLane="best">
        <route edges="320888283 46492017 36807165#1 223694351 46492638 273895449 -420904618 460585328#1 460585328#2 460585328#3 460585328#4 46482602#1 46482602#2 46482602#3 46482602#4 46482602#5 46482602#6 46482602#7 46482602#8 46482602#9 46482602#10 420494981#0 420494981#1 46522000#0 46522000#1 5670225 458180181#0 458180181#1 420902878#1 420902883#1 420902883#2 420496090#0 420496090#1 458166897#9 458166897#10 458166897#11 458166897#12 458166897#13 458166897#14 5672118#5 5672118#5-AddedOffRampEdge 5672118#6"/>
    </vehicle>
    <vehicle id="veh71" type="passenger" depart="98.00" departLane="best">