<?xml version="1.0" encoding="UTF-8"?>

<!-- generated on Mon Nov  5 20:29:26 2018 by SUMO polyconvert Version 0.26.0
<?xml version="1.0" encoding="UTF-8"?>

<configuration xmlns:xsi="http://www.w3.org/2001/XMLSchema-instance" xsi:noNamespaceSchemaLocation="http://sumo.dlr.de/xsd/polyconvertConfiguration.xsd">

    <input>
        <net-file value="/home/juan/Downloads/sumo-0.26.0/tools/2018-11-05-20-28-55/osm.net.xml"/>
        <osm-files value="osm_bbox.osm.xml"/>
        <osm.keep-full-type value="true"/>
        <type-file value="/home/juan/Downloads/sumo-0.26.0/tools/../data/typemap/osmPolyconvert.typ.xml"/>
    </input>

    <output>
        <output-file value="/home/juan/Downloads/sumo-0.26.0/tools/2018-11-05-20-28-55/osm.poly.xml"/>
    </output>

    <processing>
        <poi-layer-offset value="5"/>
    </processing>

    <report>
        <verbose value="true"/>
    </report>

</configuration>
-->

<additional xmlns:xsi="http://www.w3.org/2001/XMLSchema-instance" xsi:noNamespaceSchemaLocation="http://sumo.dlr.de/xsd/additional_file.xsd">
    <location netOffset="-580854.86,-4507296.15" convBoundary="0.00,0.00,8664.49,11387.50" origBoundary="-74.041914,40.712299,-73.939616,40.814522" projParameter="+proj=utm +zone=18 +ellps=WGS84 +datum=WGS84 +units=m +no_defs"/>

    <poly id="104071486" type="building.apartments" color="255,230,230" fill="1" layer="-1.00" shape="6306.40,4508.65 6309.37,4507.04 6303.48,4496.20 6297.26,4484.76 6294.29,4486.35 6293.03,4487.04 6291.69,4487.76 6287.03,4479.19 6265.40,4490.84 6286.94,4530.48 6308.57,4518.82 6303.80,4510.05 6305.14,4509.32 6306.40,4508.65"/>
    <poly id="108160358" type="amenity.bus_station" color="237,199,199" fill="1" layer="-1.00" shape="4330.83,4874.68 4113.80,4990.91 4123.47,5008.84 4127.52,5016.35 4132.31,5025.21 4137.59,5034.99 4142.85,5044.73 4256.85,4983.68 4265.35,4988.20 4273.54,4992.56 4274.33,4994.05 4277.50,4999.97 4286.90,5017.50 4288.63,5020.76 4282.31,5024.15 4282.68,5024.81 4284.79,5028.76 4286.91,5032.70 4290.07,5038.58 4293.24,5044.46 4296.41,5050.36 4396.50,4996.86 4363.63,4935.53 4359.87,4928.50 4330.83,4874.68"/>
    <poly id="108160358#1" type="building.yes" color="255,230,230" fill="1" layer="-1.00" shape="4330.83,4874.68 4113.80,4990.91 4123.47,5008.84 4127.52,5016.35 4132.31,5025.21 4137.59,5034.99 4142.85,5044.73 4256.85,4983.68 4265.35,4988.20 4273.54,4992.56 4274.33,4994.05 4277.50,4999.97 4286.90,5017.50 4288.63,5020.76 4282.31,5024.15 4282.68,5024.81 4284.79,5028.76 4286.91,5032.70 4290.07,5038.58 4293.24,5044.46 4296.41,5050.36 4396.50,4996.86 4363.63,4935.53 4359.87,4928.50 4330.83,4874.68"/>
    <poly id="109269750" type="leisure.park" color="207,245,201" fill="1" layer="-2.00" shape="5781.58,5744.02 5742.88,5764.89 5806.32,5882.00 5810.36,5884.53 5816.45,5886.63 5823.47,5886.94 5827.56,5885.40 5833.93,5882.10 5840.55,5877.66 5843.09,5873.41 5844.27,5869.37 5844.31,5866.20 5842.82,5858.53 5781.58,5744.02"/>
    <poly id="109284794" type="building.commercial" color="255,230,230" fill="1" layer="-1.00" shape="5114.34,5435.16 5085.33,5381.71 5090.27,5378.90 5094.27,5385.85 5095.43,5385.23 5101.45,5382.00 5102.61,5381.38 5109.22,5377.81 5110.38,5377.19 5117.00,5373.64 5118.17,5373.01 5124.77,5369.47 5125.94,5368.85 5132.53,5365.30 5133.69,5364.68 5140.31,5361.14 5141.47,5360.51 5148.07,5356.95 5149.24,5356.33 5155.84,5352.78 5157.00,5352.16 5163.61,5348.61 5164.77,5347.99 5171.38,5344.44 5172.56,5343.83 5178.57,5340.59 5179.73,5339.96 5180.36,5341.11 5183.41,5346.76 5184.04,5347.92 5187.40,5354.12 5188.02,5355.27 5191.39,5361.49 5192.01,5362.65 5195.06,5368.28 5195.69,5369.43 5197.63,5373.03 5215.87,5363.24 5223.20,5376.78 5169.36,5405.66 5114.34,5435.16"/>
    <poly id="109284795" type="building.commercial" color="255,230,230" fill="1" layer="-1.00" shape="5379.19,5314.46 5382.31,5320.13 5385.91,5326.76 5390.59,5335.35 5394.16,5341.91 5401.02,5354.52 5405.00,5361.82 5407.76,5366.81 5346.46,5400.71 5316.99,5416.63 5289.44,5431.49 5282.40,5418.55 5288.03,5415.52 5272.93,5387.75 5267.17,5390.85 5260.50,5378.60 5317.61,5347.77 5379.19,5314.46"/>
    <poly id="109284804" type="building.commercial" color="255,230,230" fill="1" layer="-1.00" shape="5030.06,5116.19 5029.60,5115.39 5029.99,5115.16 5026.13,5108.19 5025.75,5108.41 5025.28,5107.61 5025.67,5107.39 5021.80,5100.41 5021.42,5100.63 5020.96,5099.84 5021.36,5099.61 5017.50,5092.65 5017.11,5092.88 5016.65,5092.08 5017.05,5091.84 5013.18,5084.87 5012.80,5085.09 5012.33,5084.29 5012.73,5084.07 5008.86,5077.09 5008.47,5077.31 5008.01,5076.52 5008.41,5076.29 5004.54,5069.33 5004.17,5069.53 5003.71,5068.74 5004.46,5068.30 5004.70,5068.71 5011.70,5064.86 5011.46,5064.47 5012.23,5064.02 5012.47,5064.43 5019.45,5060.58 5019.23,5060.19 5020.00,5059.76 5020.23,5060.16 5027.22,5056.31 5026.99,5055.91 5027.75,5055.47 5027.99,5055.89 5034.99,5052.03 5034.75,5051.64 5035.52,5051.19 5035.76,5051.60 5042.75,5047.75 5042.52,5047.36 5043.28,5046.92 5043.75,5047.71 5043.37,5047.94 5047.24,5054.91 5047.60,5054.69 5048.07,5055.49 5047.68,5055.72 5051.54,5062.68 5051.92,5062.46 5052.38,5063.26 5052.00,5063.48 5055.85,5070.43 5056.21,5070.23 5056.67,5071.02 5056.30,5071.24 5060.18,5078.21 5060.53,5078.00 5061.00,5078.80 5060.62,5079.03 5064.49,5086.00 5064.86,5085.78 5065.33,5086.57 5064.94,5086.80 5068.81,5093.76 5069.18,5093.56 5069.64,5094.35 5068.87,5094.80 5068.64,5094.40 5061.66,5098.24 5061.88,5098.62 5061.13,5099.07 5060.89,5098.67 5053.88,5102.53 5054.11,5102.92 5053.34,5103.35 5053.11,5102.95 5046.13,5106.80 5046.35,5107.18 5045.59,5107.63 5045.35,5107.23 5038.36,5111.07 5038.58,5111.47 5037.83,5111.91 5037.59,5111.50 5030.60,5115.35 5030.83,5115.74 5030.06,5116.19"/>
    <poly id="109284807" type="building.commercial" color="255,230,230" fill="1" layer="-1.00" shape="5408.65,5266.25 5406.60,5262.57 5403.85,5257.46 5392.71,5236.84 5390.01,5231.71 5387.98,5227.96 5410.15,5216.08 5408.00,5212.10 5416.52,5207.62 5415.26,5205.28 5468.71,5176.58 5469.97,5178.93 5476.87,5191.71 5478.37,5194.48 5467.58,5200.25 5475.78,5215.47 5486.44,5209.78 5487.93,5212.56 5494.81,5225.29 5496.07,5227.64 5441.68,5256.75 5415.77,5270.78 5410.24,5269.28 5408.65,5266.25"/>
    <poly id="109285745" type="building.commercial" color="255,230,230" fill="1" layer="-1.00" shape="4664.14,4850.02 4656.81,4836.31 4636.76,4798.81 4646.46,4793.59 4673.35,4779.12 4684.68,4828.03 4686.96,4837.83 4679.22,4842.05 4676.88,4843.32 4664.14,4850.02"/>
    <poly id="113690621" type="leisure.park" color="207,245,201" fill="1" layer="-2.00" shape="5083.98,4930.67 5103.54,4920.37 5110.66,4916.61 5124.95,4943.17 5131.52,4955.39 5127.55,4957.54 5135.73,4972.75 5131.74,4974.80 5112.81,4984.57 5111.51,4982.18 5085.87,4934.20 5083.98,4930.67"/>
    <poly id="113690622" type="natural.water" color="181,209,209" fill="1" layer="-4.00" shape="5155.13,5308.60 5177.08,5296.83 5160.71,5266.54 5138.76,5278.32 5155.13,5308.60"/>
    <poly id="113722987" type="landuse.grass" color="194,194,130" fill="1" layer="-3.00" shape="4991.73,4627.86 4991.75,4626.29 4991.99,4624.71 4993.37,4623.15 4971.66,4582.07 4969.61,4582.50 4967.36,4581.56 4966.47,4580.20 4895.36,4619.31 4899.35,4627.47 4902.51,4627.51 4907.04,4628.24 4911.54,4630.32 4914.67,4633.74 4917.80,4637.17 4919.57,4641.02 4920.65,4645.54 4919.46,4650.26 4918.28,4654.31 4916.42,4658.58 4920.86,4666.52 4991.73,4627.86"/>
    <poly id="113722987#1" type="leisure.recreation_ground" color="207,245,201" fill="1" layer="-2.00" shape="4991.73,4627.86 4991.75,4626.29 4991.99,4624.71 4993.37,4623.15 4971.66,4582.07 4969.61,4582.50 4967.36,4581.56 4966.47,4580.20 4895.36,4619.31 4899.35,4627.47 4902.51,4627.51 4907.04,4628.24 4911.54,4630.32 4914.67,4633.74 4917.80,4637.17 4919.57,4641.02 4920.65,4645.54 4919.46,4650.26 4918.28,4654.31 4916.42,4658.58 4920.86,4666.52 4991.73,4627.86"/>
    <poly id="114071252" type="building.yes" color="255,230,230" fill="1" layer="-1.00" shape="5395.08,4390.92 5394.02,4391.49 5367.48,4405.61 5367.67,4405.96 5370.43,4411.10 5370.72,4411.65 5373.37,4416.58 5375.00,4419.63 5376.31,4422.07 5379.25,4427.55 5388.09,4444.01 5389.23,4446.14 5391.03,4449.49 5393.76,4454.59 5393.97,4454.98 5396.90,4460.44 5423.43,4446.32 5424.50,4445.75 5423.55,4444.01 5421.36,4439.90 5420.73,4438.73 5419.01,4435.51 5418.62,4434.78 5416.89,4431.56 5416.26,4430.39 5414.52,4427.14 5414.13,4426.43 5412.39,4423.19 5411.76,4422.01 5410.03,4418.76 5409.64,4418.05 5407.91,4414.82 5407.28,4413.64 5405.54,4410.39 5405.16,4409.68 5403.42,4406.45 5402.79,4405.28 5401.06,4402.06 5400.67,4401.33 5398.95,4398.14 5398.33,4396.96 5396.01,4392.66 5395.08,4390.92"/>
    <poly id="118116797" type="building.yes" color="255,230,230" fill="1" layer="-1.00" shape="5485.20,5142.63 5458.61,5092.40 5459.49,5088.99 5512.16,5061.03 5513.45,5063.33 5514.20,5064.76 5516.55,5068.86 5521.75,5078.57 5524.01,5082.76 5529.93,5093.47 5532.22,5097.62 5537.78,5107.40 5540.25,5112.04 5540.90,5113.41 5541.85,5115.19 5488.60,5143.63 5485.20,5142.63"/>
    <poly id="118116797#1" type="shop.department_store" color="237,199,255" fill="1" layer="-1.00" shape="5485.20,5142.63 5458.61,5092.40 5459.49,5088.99 5512.16,5061.03 5513.45,5063.33 5514.20,5064.76 5516.55,5068.86 5521.75,5078.57 5524.01,5082.76 5529.93,5093.47 5532.22,5097.62 5537.78,5107.40 5540.25,5112.04 5540.90,5113.41 5541.85,5115.19 5488.60,5143.63 5485.20,5142.63"/>
    <poly id="118116797#2" type="tourism.attraction" color="207,245,201" fill="1" layer="-2.00" shape="5485.20,5142.63 5458.61,5092.40 5459.49,5088.99 5512.16,5061.03 5513.45,5063.33 5514.20,5064.76 5516.55,5068.86 5521.75,5078.57 5524.01,5082.76 5529.93,5093.47 5532.22,5097.62 5537.78,5107.40 5540.25,5112.04 5540.90,5113.41 5541.85,5115.19 5488.60,5143.63 5485.20,5142.63"/>
    <poly id="118116798" type="leisure.park" color="207,245,201" fill="1" layer="-2.00" shape="3491.59,5605.60 3447.94,5612.08 3463.04,5637.97 3456.52,5641.75 3447.73,5646.85 3465.09,5678.54 3350.07,5741.39 3280.49,5779.03 3296.50,5809.27 3286.09,5815.12 3280.77,5813.05 3278.61,5809.27 3272.95,5812.95 3277.59,5822.24 3279.06,5823.98 3280.99,5824.92 3283.30,5824.83 3285.25,5823.82 3300.11,5815.95 3397.09,5763.21 3399.83,5768.06 3432.44,5750.82 3429.43,5745.61 3553.81,5677.97 3578.49,5696.31 3579.04,5685.05 3491.59,5605.60"/>
    <poly id="118116810" type="building.commercial" color="255,230,230" fill="1" layer="-1.00" shape="6027.03,5214.92 5997.90,5161.27 5896.19,5216.05 5906.91,5235.78 5901.18,5238.87 5915.71,5265.62 5921.44,5262.54 5925.32,5269.71 6027.03,5214.92"/>
    <poly id="118476490" type="building.commercial" color="255,230,230" fill="1" layer="-1.00" shape="5726.23,5105.65 5724.61,5102.69 5722.70,5099.17 5720.33,5094.80 5716.46,5087.69 5715.71,5086.31 5714.94,5084.90 5714.18,5083.50 5713.42,5082.11 5712.67,5080.71 5711.93,5079.26 5710.36,5080.10 5709.78,5079.01 5709.61,5078.70 5708.87,5077.32 5708.10,5075.94 5707.34,5074.54 5706.58,5073.15 5705.81,5071.76 5705.05,5070.37 5701.15,5063.26 5698.78,5058.93 5696.93,5055.56 5695.64,5053.21 5695.39,5052.75 5711.95,5043.77 5736.19,5030.69 5765.43,5084.47 5741.16,5097.58 5726.23,5105.65"/>
    <poly id="118476491" type="building.commercial" color="255,230,230" fill="1" layer="-1.00" shape="5620.72,5063.54 5599.00,5023.01 5646.14,4997.75 5657.00,5017.89 5667.84,5038.29 5620.72,5063.54"/>
    <poly id="118476493" type="building.commercial" color="255,230,230" fill="1" layer="-1.00" shape="5878.98,5294.08 5850.14,5240.66 5809.07,5262.83 5822.54,5287.78 5811.95,5293.49 5827.33,5321.96 5878.98,5294.08"/>
    <poly id="118476502" type="building.commercial" color="255,230,230" fill="1" layer="-1.00" shape="5458.47,5360.16 5470.89,5382.79 5475.16,5380.46 5477.69,5385.08 5486.91,5401.85 5492.65,5412.37 5531.83,5391.02 5573.11,5368.53 5543.18,5314.01 5501.90,5336.50 5458.47,5360.16"/>
    <poly id="134658131" type="building.yes" color="255,230,230" fill="1" layer="-1.00" shape="5017.33,5938.90 5016.58,5937.44 5009.89,5925.17 5005.39,5916.89 5005.15,5916.45 5000.93,5908.67 4996.67,5900.79 4993.41,5894.77 4990.16,5888.77 4988.44,5885.58 5035.06,5860.94 5039.06,5878.07 5045.18,5906.01 5048.45,5922.29 5017.33,5938.90"/>
    <poly id="137564642" type="building.commercial" color="255,230,230" fill="1" layer="-1.00" shape="5517.45,4672.48 5517.78,4673.08 5596.48,4630.48 5596.10,4629.79 5596.72,4629.45 5571.78,4583.15 5557.84,4557.33 5551.14,4545.27 5545.87,4548.13 5537.94,4533.49 5525.45,4540.25 5479.57,4564.97 5468.55,4571.07 5476.40,4585.57 5472.16,4587.86 5472.35,4588.22 5471.50,4588.68 5478.16,4601.18 5491.35,4625.54 5517.00,4672.73 5517.45,4672.48"/>
    <poly id="137707119" type="building.commercial" color="255,230,230" fill="1" layer="-1.00" shape="5044.78,5558.96 5036.55,5543.55 5039.65,5541.92 5029.76,5523.43 5026.67,5525.07 5018.62,5510.02 5047.51,5494.77 5095.22,5469.47 5103.38,5465.16 5111.73,5460.76 5126.82,5452.64 5130.79,5459.96 5148.89,5494.04 5152.97,5501.58 5137.88,5509.69 5129.76,5513.98 5121.38,5518.41 5073.66,5543.72 5044.78,5558.96"/>
    <poly id="137716320" type="building.yes" color="255,230,230" fill="1" layer="-1.00" shape="4817.41,5136.55 4792.09,5088.21 4842.26,5062.07 4845.91,5069.44 4846.40,5070.37 4848.74,5074.77 4856.01,5088.47 4865.74,5083.38 4876.85,5104.52 4879.96,5110.62 4848.18,5127.21 4845.41,5121.93 4817.41,5136.55"/>
    <poly id="137860913" type="building.commercial" color="255,230,230" fill="1" layer="-1.00" shape="5703.70,4845.50 5699.31,4837.18 5693.60,4840.18 5675.63,4806.19 5681.50,4803.10 5676.93,4794.44 5771.55,4744.82 5798.48,4795.81 5703.70,4845.50"/>
    <poly id="137874157" type="building.commercial" color="255,230,230" fill="1" layer="-1.00" shape="4889.71,5551.19 4824.45,5586.18 4823.79,5584.96 4821.57,5586.15 4798.51,5543.49 4800.84,5542.25 4800.20,5541.07 4865.36,5506.13 4889.71,5551.19"/>
    <poly id="137874843" type="amenity.theatre" color="237,199,199" fill="1" layer="-1.00" shape="4795.67,5538.19 4766.25,5553.92 4771.85,5564.30 4773.50,5567.37 4775.70,5571.44 4781.07,5581.42 4787.85,5593.99 4789.70,5597.43 4795.22,5607.65 4824.64,5591.90 4821.57,5586.15 4798.51,5543.49 4795.67,5538.19"/>
    <poly id="137874843#1" type="building.yes" color="255,230,230" fill="1" layer="-1.00" shape="4795.67,5538.19 4766.25,5553.92 4771.85,5564.30 4773.50,5567.37 4775.70,5571.44 4781.07,5581.42 4787.85,5593.99 4789.70,5597.43 4795.22,5607.65 4824.64,5591.90 4821.57,5586.15 4798.51,5543.49 4795.67,5538.19"/>
    <poly id="137880206" type="building.yes" color="255,230,230" fill="1" layer="-1.00" shape="6032.72,5116.08 6055.76,5103.29 6066.09,5097.73 6054.68,5076.70 6051.63,5071.09 6047.80,5064.02 6042.20,5067.03 6037.64,5058.66 6043.31,5055.61 6041.79,5052.79 6031.39,5058.40 6008.15,5070.37 5984.91,5082.99 5997.46,5105.67 6032.72,5116.08"/>
    <poly id="137883073" type="building.yes" color="255,230,230" fill="1" layer="-1.00" shape="5633.21,5607.14 5628.85,5599.51 5626.80,5595.73 5622.60,5587.96 5620.36,5583.82 5618.72,5580.75 5631.92,5573.51 5634.70,5572.01 5661.11,5557.81 5664.02,5556.25 5666.13,5555.08 5672.08,5551.91 5686.18,5577.38 5633.21,5607.14"/>
    <poly id="137885993" type="building.commercial" color="255,230,230" fill="1" layer="-1.00" shape="5864.84,5030.77 5863.97,5029.16 5849.91,5003.27 5870.11,4992.30 5868.97,4990.20 5874.09,4987.41 5886.63,4980.58 5889.72,4978.90 5891.46,4977.95 5893.81,4976.67 5895.91,4975.53 5910.10,5001.91 5910.28,5002.35 5910.49,5003.32 5910.48,5004.00 5910.32,5004.80 5909.91,5005.71 5909.62,5006.12 5909.27,5006.48 5908.46,5007.08 5864.84,5030.77"/>
    <poly id="137891657" type="building.commercial" color="255,230,230" fill="1" layer="-1.00" shape="5918.61,5022.82 5891.52,5037.34 5898.12,5049.56 5842.27,5079.50 5853.90,5101.04 5839.04,5109.00 5849.87,5129.06 5947.68,5076.66 5918.61,5022.82"/>
    <poly id="138000178" type="building.yes" color="255,230,230" fill="1" layer="-1.00" shape="6268.53,5482.19 6273.27,5488.25 6272.70,5489.97 6272.31,5491.71 6272.14,5492.75 6271.98,5494.26 6271.93,5495.99 6271.97,5496.90 6266.89,5496.39 6268.26,5498.95 6278.03,5517.04 6282.48,5525.30 6285.28,5530.47 6289.03,5529.98 6293.01,5529.15 6295.62,5528.31 6298.66,5534.05 6239.99,5564.92 6211.09,5510.43 6263.73,5482.74 6264.54,5484.24 6268.53,5482.19"/>
    <poly id="138022483" type="building.commercial" color="255,230,230" fill="1" layer="-1.00" shape="5345.71,4485.81 5350.30,4483.37 5351.11,4484.87 5366.35,4476.75 5381.64,4468.60 5396.90,4460.44 5393.97,4454.98 5393.76,4454.59 5391.03,4449.49 5389.23,4446.14 5388.09,4444.01 5379.25,4427.55 5376.31,4422.07 5375.00,4419.63 5373.37,4416.58 5370.72,4411.65 5370.43,4411.10 5367.67,4405.96 5367.48,4405.61 5352.20,4413.70 5336.95,4421.82 5321.57,4430.01 5316.66,4432.62 5317.02,4433.33 5324.37,4446.87 5318.56,4450.00 5306.13,4456.69 5299.98,4460.00 5293.47,4463.50 5301.70,4478.47 5308.13,4475.05 5314.33,4471.75 5332.87,4461.87 5345.71,4485.81"/>
    <poly id="138141251" type="building.yes" color="255,230,230" fill="1" layer="-1.00" shape="4032.58,4255.95 4041.21,4251.47 4041.25,4249.60 4042.17,4240.62 4044.23,4231.61 4047.52,4223.67 4055.86,4223.75 4056.92,4225.82 4060.56,4218.50 4065.91,4211.19 4071.60,4205.28 4078.79,4199.60 4086.53,4195.09 4094.41,4191.83 4102.43,4189.68 4111.22,4188.54 4120.21,4188.63 4121.70,4188.76 4128.30,4180.19 4131.87,4180.85 4140.81,4183.52 4144.61,4185.22 4144.92,4195.71 4152.42,4200.28 4157.32,4192.22 4160.14,4194.26 4166.27,4198.70 4163.68,4202.28 4169.95,4208.83 4175.13,4216.08 4179.26,4223.76 4182.50,4232.15 4184.75,4241.60 4188.58,4241.07 4188.98,4249.19 4189.00,4252.96 4179.49,4252.56 4178.96,4261.13 4187.73,4266.15 4186.65,4271.22 4183.83,4279.80 4182.14,4283.62 4171.63,4283.39 4167.30,4290.21 4161.42,4297.19 4155.40,4302.66 4148.37,4307.54 4140.34,4311.63 4132.62,4314.34 4124.61,4316.04 4116.52,4316.73 4107.78,4316.33 4106.16,4316.12 4107.41,4319.18 4102.99,4325.11 4101.61,4324.84 4095.96,4323.72 4088.58,4321.25 4087.37,4320.84 4084.88,4319.66 4079.20,4316.95 4074.58,4314.17 4066.75,4318.53 4032.58,4255.95"/>
    <poly id="138141251#1" type="leisure.stadium" color="207,245,201" fill="1" layer="-2.00" shape="4032.58,4255.95 4041.21,4251.47 4041.25,4249.60 4042.17,4240.62 4044.23,4231.61 4047.52,4223.67 4055.86,4223.75 4056.92,4225.82 4060.56,4218.50 4065.91,4211.19 4071.60,4205.28 4078.79,4199.60 4086.53,4195.09 4094.41,4191.83 4102.43,4189.68 4111.22,4188.54 4120.21,4188.63 4121.70,4188.76 4128.30,4180.19 4131.87,4180.85 4140.81,4183.52 4144.61,4185.22 4144.92,4195.71 4152.42,4200.28 4157.32,4192.22 4160.14,4194.26 4166.27,4198.70 4163.68,4202.28 4169.95,4208.83 4175.13,4216.08 4179.26,4223.76 4182.50,4232.15 4184.75,4241.60 4188.58,4241.07 4188.98,4249.19 4189.00,4252.96 4179.49,4252.56 4178.96,4261.13 4187.73,4266.15 4186.65,4271.22 4183.83,4279.80 4182.14,4283.62 4171.63,4283.39 4167.30,4290.21 4161.42,4297.19 4155.40,4302.66 4148.37,4307.54 4140.34,4311.63 4132.62,4314.34 4124.61,4316.04 4116.52,4316.73 4107.78,4316.33 4106.16,4316.12 4107.41,4319.18 4102.99,4325.11 4101.61,4324.84 4095.96,4323.72 4088.58,4321.25 4087.37,4320.84 4084.88,4319.66 4079.20,4316.95 4074.58,4314.17 4066.75,4318.53 4032.58,4255.95"/>
    <poly id="138141251#2" type="sport.multi" color="79,230,125" fill="1" layer="-2.00" shape="4032.58,4255.95 4041.21,4251.47 4041.25,4249.60 4042.17,4240.62 4044.23,4231.61 4047.52,4223.67 4055.86,4223.75 4056.92,4225.82 4060.56,4218.50 4065.91,4211.19 4071.60,4205.28 4078.79,4199.60 4086.53,4195.09 4094.41,4191.83 4102.43,4189.68 4111.22,4188.54 4120.21,4188.63 4121.70,4188.76 4128.30,4180.19 4131.87,4180.85 4140.81,4183.52 4144.61,4185.22 4144.92,4195.71 4152.42,4200.28 4157.32,4192.22 4160.14,4194.26 4166.27,4198.70 4163.68,4202.28 4169.95,4208.83 4175.13,4216.08 4179.26,4223.76 4182.50,4232.15 4184.75,4241.60 4188.58,4241.07 4188.98,4249.19 4189.00,4252.96 4179.49,4252.56 4178.96,4261.13 4187.73,4266.15 4186.65,4271.22 4183.83,4279.80 4182.14,4283.62 4171.63,4283.39 4167.30,4290.21 4161.42,4297.19 4155.40,4302.66 4148.37,4307.54 4140.34,4311.63 4132.62,4314.34 4124.61,4316.04 4116.52,4316.73 4107.78,4316.33 4106.16,4316.12 4107.41,4319.18 4102.99,4325.11 4101.61,4324.84 4095.96,4323.72 4088.58,4321.25 4087.37,4320.84 4084.88,4319.66 4079.20,4316.95 4074.58,4314.17 4066.75,4318.53 4032.58,4255.95"/>
    <poly id="138141251#3" type="tourism.attraction" color="207,245,201" fill="1" layer="-2.00" shape="4032.58,4255.95 4041.21,4251.47 4041.25,4249.60 4042.17,4240.62 4044.23,4231.61 4047.52,4223.67 4055.86,4223.75 4056.92,4225.82 4060.56,4218.50 4065.91,4211.19 4071.60,4205.28 4078.79,4199.60 4086.53,4195.09 4094.41,4191.83 4102.43,4189.68 4111.22,4188.54 4120.21,4188.63 4121.70,4188.76 4128.30,4180.19 4131.87,4180.85 4140.81,4183.52 4144.61,4185.22 4144.92,4195.71 4152.42,4200.28 4157.32,4192.22 4160.14,4194.26 4166.27,4198.70 4163.68,4202.28 4169.95,4208.83 4175.13,4216.08 4179.26,4223.76 4182.50,4232.15 4184.75,4241.60 4188.58,4241.07 4188.98,4249.19 4189.00,4252.96 4179.49,4252.56 4178.96,4261.13 4187.73,4266.15 4186.65,4271.22 4183.83,4279.80 4182.14,4283.62 4171.63,4283.39 4167.30,4290.21 4161.42,4297.19 4155.40,4302.66 4148.37,4307.54 4140.34,4311.63 4132.62,4314.34 4124.61,4316.04 4116.52,4316.73 4107.78,4316.33 4106.16,4316.12 4107.41,4319.18 4102.99,4325.11 4101.61,4324.84 4095.96,4323.72 4088.58,4321.25 4087.37,4320.84 4084.88,4319.66 4079.20,4316.95 4074.58,4314.17 4066.75,4318.53 4032.58,4255.95"/>
    <poly id="138147416" type="building.yes" color="255,230,230" fill="1" layer="-1.00" shape="4289.91,4327.44 4240.33,4354.04 4236.29,4346.58 4204.01,4363.91 4201.40,4359.08 4168.47,4376.74 4166.58,4373.26 4162.41,4375.50 4159.02,4377.31 4147.27,4355.56 4150.74,4353.69 4154.82,4351.51 4152.93,4348.01 4174.42,4336.49 4185.86,4330.35 4183.25,4325.52 4215.53,4308.19 4211.50,4300.73 4261.08,4274.13 4278.10,4305.61 4282.57,4313.88 4289.91,4327.44"/>
    <poly id="138147417" type="building.yes" color="255,230,230" fill="1" layer="-1.00" shape="4215.11,4226.57 4209.74,4216.64 4198.57,4196.08 4197.38,4193.87 4192.45,4184.77 4172.19,4195.55 4166.27,4198.70 4163.68,4202.28 4169.95,4208.83 4175.13,4216.08 4179.26,4223.76 4182.50,4232.15 4184.75,4241.60 4188.58,4241.07 4193.86,4238.18 4215.11,4226.57"/>
    <poly id="138152330" type="building.yes" color="255,230,230" fill="1" layer="-1.00" shape="4380.32,4905.12 4379.88,4905.44 4358.97,4867.22 4359.53,4866.83 4358.32,4864.62 4360.15,4863.63 4368.12,4859.33 4365.62,4854.73 4365.40,4854.30 4387.96,4842.14 4388.21,4842.61 4390.69,4847.18 4401.96,4841.10 4399.96,4837.26 4464.93,4802.64 4476.80,4824.83 4479.89,4830.61 4491.77,4852.84 4490.95,4853.27 4491.51,4854.45 4428.06,4888.91 4424.68,4882.93 4413.41,4889.00 4415.91,4893.60 4416.18,4894.09 4393.62,4906.24 4393.36,4905.75 4390.84,4901.16 4383.07,4905.35 4381.04,4906.44 4380.32,4905.12"/>
    <poly id="138152331" type="building.yes" color="255,230,230" fill="1" layer="-1.00" shape="4420.31,4873.48 4439.31,4863.08 4428.71,4843.71 4409.71,4854.07 4420.31,4873.48"/>
    <poly id="143858914" type="building.yes" color="255,230,230" fill="1" layer="-1.00" shape="4662.14,5249.05 4676.46,5275.42 4676.73,5275.92 4680.74,5283.32 4691.08,5302.38 4731.70,5280.38 4748.91,5271.00 4734.61,5244.64 4730.81,5246.69 4717.44,5254.08 4703.76,5261.38 4683.53,5272.35 4668.90,5245.39 4662.14,5249.05"/>
    <poly id="143858914#1" type="tourism.hotel" color="207,245,201" fill="1" layer="-2.00" shape="4662.14,5249.05 4676.46,5275.42 4676.73,5275.92 4680.74,5283.32 4691.08,5302.38 4731.70,5280.38 4748.91,5271.00 4734.61,5244.64 4730.81,5246.69 4717.44,5254.08 4703.76,5261.38 4683.53,5272.35 4668.90,5245.39 4662.14,5249.05"/>
    <poly id="144919873" type="building.yes" color="255,230,230" fill="1" layer="-1.00" shape="5835.72,4866.20 5806.99,4812.47 5789.88,4821.55 5767.34,4833.51 5750.11,4842.65 5778.84,4896.38 5796.06,4887.23 5818.59,4875.28 5835.72,4866.20"/>
    <poly id="144919873#1" type="tourism.hotel" color="207,245,201" fill="1" layer="-2.00" shape="5835.72,4866.20 5806.99,4812.47 5789.88,4821.55 5767.34,4833.51 5750.11,4842.65 5778.84,4896.38 5796.06,4887.23 5818.59,4875.28 5835.72,4866.20"/>
    <poly id="144919878" type="building.commercial" color="255,230,230" fill="1" layer="-1.00" shape="5768.04,4895.20 5744.61,4851.37 5703.92,4872.95 5727.35,4916.78 5768.04,4895.20"/>
    <poly id="144932295" type="building.commercial" color="255,230,230" fill="1" layer="-1.00" shape="5635.26,4730.86 5660.54,4776.29 5757.76,4722.61 5732.49,4677.19 5635.26,4730.86"/>
    <poly id="145038500" type="building.yes" color="255,230,230" fill="1" layer="-1.00" shape="6110.09,4920.26 6107.47,4921.67 6083.21,4934.63 6081.07,4935.77 6109.64,4988.85 6136.04,4974.75 6134.78,4972.40 6132.86,4968.87 6132.05,4967.33 6131.47,4966.25 6128.20,4960.08 6124.94,4953.92 6121.64,4947.99 6124.26,4946.59 6121.14,4940.80 6120.41,4939.40 6110.94,4921.85 6110.09,4920.26"/>
    <poly id="145038506" type="building.office" color="255,230,230" fill="1" layer="-1.00" shape="6173.26,5044.77 6184.62,5038.67 6195.23,5033.06 6189.65,5022.46 6185.25,5014.33 6176.83,5011.84 6169.58,4998.23 6167.13,4993.61 6162.21,4984.41 6152.06,4989.81 6123.35,5005.13 6121.67,5010.77 6133.34,5032.66 6134.11,5034.09 6138.05,5041.45 6144.09,5043.24 6158.63,5047.62 6164.42,5049.33 6171.84,5045.51 6173.26,5044.77"/>
    <poly id="145043141" type="building.yes" color="255,230,230" fill="1" layer="-1.00" shape="6197.34,5123.53 6199.13,5122.15 6200.74,5120.16 6201.96,5117.92 6202.82,5115.06 6202.95,5110.77 6202.65,5106.32 6201.24,5099.45 6199.61,5094.77 6197.75,5090.94 6195.55,5086.85 6192.62,5082.12 6189.65,5078.20 6186.42,5074.96 6182.99,5072.26 6180.90,5071.15 6178.26,5069.80 6176.20,5069.07 6173.14,5068.58 6170.76,5068.63 6168.86,5069.15 6167.29,5070.04 6165.53,5071.44 6163.95,5073.46 6162.77,5075.73 6161.95,5078.60 6161.66,5082.09 6162.06,5086.79 6163.63,5093.86 6165.39,5098.63 6167.40,5102.63 6169.67,5106.69 6172.73,5111.46 6175.92,5115.55 6179.19,5118.64 6182.65,5121.31 6186.27,5123.11 6189.31,5124.16 6192.38,5124.59 6194.78,5124.38 6197.34,5123.53"/>
    <poly id="145341258" type="building.commercial" color="255,230,230" fill="1" layer="-1.00" shape="5906.47,5138.29 5902.70,5131.30 5879.89,5143.52 5900.39,5181.47 5923.40,5169.14 5919.13,5161.23 5926.54,5157.25 5934.71,5172.37 5958.15,5159.80 5949.88,5144.51 5944.08,5133.76 5943.59,5134.02 5940.62,5128.52 5936.95,5121.73 5936.00,5119.97 5934.48,5117.16 5931.40,5111.45 5929.29,5107.56 5906.37,5119.85 5914.12,5134.19 5906.47,5138.29"/>
    <poly id="145427087" type="building.yes" color="255,230,230" fill="1" layer="-1.00" shape="5215.26,5651.63 5337.20,5586.33 5308.54,5533.00 5184.34,5599.75 5198.69,5626.73 5200.84,5625.56 5209.26,5640.56 5215.26,5651.63"/>
    <poly id="145427087#1" type="tourism.hotel" color="207,245,201" fill="1" layer="-2.00" shape="5215.26,5651.63 5337.20,5586.33 5308.54,5533.00 5184.34,5599.75 5198.69,5626.73 5200.84,5625.56 5209.26,5640.56 5215.26,5651.63"/>
    <poly id="146028962" type="building.commercial" color="255,230,230" fill="1" layer="-1.00" shape="5199.47,5570.02 5196.90,5565.25 5192.67,5557.36 5182.12,5537.93 5179.51,5533.11 5177.48,5529.55 5173.02,5521.43 5170.40,5516.73 5196.53,5502.11 5199.33,5507.26 5255.47,5477.03 5259.81,5485.20 5269.81,5479.81 5285.00,5507.62 5274.05,5513.53 5278.32,5521.40 5223.50,5550.92 5226.11,5555.72 5199.47,5570.02"/>
    <poly id="146028965" type="building.commercial" color="255,230,230" fill="1" layer="-1.00" shape="5152.97,5501.58 5148.89,5494.04 5130.79,5459.96 5126.82,5452.64 5179.58,5424.71 5183.54,5432.16 5187.94,5429.85 5186.34,5426.84 5232.41,5402.50 5253.81,5442.69 5207.71,5467.05 5206.04,5463.93 5201.63,5466.25 5205.62,5473.75 5186.39,5484.17 5152.97,5501.58"/>
    <poly id="146031971" type="building.commercial" color="255,230,230" fill="1" layer="-1.00" shape="5084.62,5359.27 5080.78,5361.31 5065.43,5369.46 5051.72,5344.10 5035.90,5352.60 5022.23,5327.31 5062.32,5305.76 5068.08,5316.41 5133.46,5281.34 5149.55,5311.11 5079.04,5348.93 5084.62,5359.27"/>
    <poly id="146109229" type="building.yes" color="255,230,230" fill="1" layer="-1.00" shape="5805.75,5355.75 5795.15,5361.46 5781.45,5369.07 5788.19,5381.11 5799.41,5401.58 5823.73,5388.22 5805.75,5355.75"/>
    <poly id="146220936" type="building.commercial" color="255,230,230" fill="1" layer="-1.00" shape="5582.75,4824.61 5616.87,4806.42 5607.29,4788.60 5597.72,4770.78 5588.15,4752.96 5554.02,4771.15 5582.75,4824.61"/>
    <poly id="146257145" type="building.office" color="255,230,230" fill="1" layer="-1.00" shape="6230.61,5371.28 6227.03,5364.64 6220.67,5352.91 6227.54,5349.19 6224.68,5343.90 6231.03,5340.46 6231.13,5340.64 6234.85,5347.52 6257.22,5335.42 6266.20,5352.02 6230.61,5371.28"/>
    <poly id="146278002" type="building.commercial" color="255,230,230" fill="1" layer="-1.00" shape="5607.10,4893.81 5601.93,4884.17 5600.25,4881.04 5591.03,4863.86 5589.43,4860.87 5583.80,4850.39 5622.58,4829.76 5645.87,4873.18 5607.10,4893.81"/>
    <poly id="146278003" type="building.commercial" color="255,230,230" fill="1" layer="-1.00" shape="5601.93,4884.17 5600.25,4881.04 5591.03,4863.86 5589.43,4860.87 5579.96,4865.90 5573.32,4853.51 5518.89,4882.44 5544.57,4930.39 5598.93,4901.51 5592.37,4889.26 5601.93,4884.17"/>
    <poly id="147301613" type="building.yes" color="255,230,230" fill="1" layer="-1.00" shape="6078.59,4825.35 6077.93,4824.14 6070.18,4809.97 6067.36,4804.82 6057.86,4809.98 6057.14,4808.76 6046.98,4790.62 6043.12,4792.70 6026.18,4801.78 6013.57,4808.60 6013.18,4809.06 6013.08,4809.66 6013.23,4810.24 6033.78,4848.44 6034.03,4848.62 6034.60,4848.78 6034.90,4848.76 6035.40,4848.53 6048.17,4841.70 6069.10,4830.51 6078.59,4825.35"/>
    <poly id="148241073" type="building.commercial" color="255,230,230" fill="1" layer="-1.00" shape="5825.92,5268.21 5844.03,5258.58 5852.74,5274.86 5834.64,5284.49 5825.92,5268.21"/>